REMARK  Name = ../refined-set-2016/2ptz/2ptz_pocket.pdb
REMARK  181 active torsions:
REMARK  status: ('A' for Active; 'I' for Inactive)
REMARK    1  A    between atoms: _1  and  _3
REMARK    2  A    between atoms: _3  and  _4
REMARK    3  A    between atoms: _3  and  _6
REMARK    4  A    between atoms: _6  and  _7
REMARK    5  A    between atoms: _7  and  _8
REMARK    6  A    between atoms: _8  and  _9
REMARK    7  A    between atoms: _19  and  _20
REMARK    8  A    between atoms: _25  and  _27
REMARK    9  A    between atoms: _27  and  _28
REMARK   10  A    between atoms: _27  and  _30
REMARK   11  A    between atoms: _30  and  _31
REMARK   12  A    between atoms: _33  and  _35
REMARK   13  A    between atoms: _35  and  _36
REMARK   14  A    between atoms: _38  and  _40
REMARK   15  A    between atoms: _40  and  _41
REMARK   16  A    between atoms: _44  and  _46
REMARK   17  A    between atoms: _46  and  _47
REMARK   18  A    between atoms: _46  and  _49
REMARK   19  A    between atoms: _47  and  _48
REMARK   20  A    between atoms: _47  and  _52
REMARK   21  A    between atoms: _48  and  ZN_396
REMARK   22  A    between atoms: _49  and  _50
REMARK   23  A    between atoms: _52  and  _54
REMARK   24  A    between atoms: _54  and  _55
REMARK   25  A    between atoms: _54  and  _57
REMARK   26  A    between atoms: _57  and  _58
REMARK   27  A    between atoms: _61  and  _63
REMARK   28  A    between atoms: _63  and  _64
REMARK   29  A    between atoms: _66  and  _68
REMARK   30  A    between atoms: _68  and  _69
REMARK   31  A    between atoms: _68  and  _71
REMARK   32  A    between atoms: _71  and  _72
REMARK   33  A    between atoms: _72  and  _73
REMARK   34  A    between atoms: _76  and  _78
REMARK   35  A    between atoms: _78  and  _79
REMARK   36  A    between atoms: _78  and  _81
REMARK   37  A    between atoms: _81  and  _82
REMARK   38  A    between atoms: _87  and  _89
REMARK   39  A    between atoms: _89  and  _90
REMARK   40  A    between atoms: _92  and  _94
REMARK   41  A    between atoms: _94  and  _95
REMARK   42  A    between atoms: _94  and  _97
REMARK   43  A    between atoms: _97  and  _98
REMARK   44  A    between atoms: _98  and  _99
REMARK   45  A    between atoms: _99  and  _100
REMARK   46  A    between atoms: _100  and  _101
REMARK   47  A    between atoms: _105  and  _107
REMARK   48  A    between atoms: _107  and  _108
REMARK   49  A    between atoms: _107  and  _110
REMARK   50  A    between atoms: _110  and  _111
REMARK   51  A    between atoms: _111  and  _112
REMARK   52  A    between atoms: _117  and  _119
REMARK   53  A    between atoms: _119  and  _120
REMARK   54  A    between atoms: _119  and  _122
REMARK   55  A    between atoms: _122  and  _123
REMARK   56  A    between atoms: _123  and  _124
REMARK   57  A    between atoms: _127  and  _129
REMARK   58  A    between atoms: _129  and  _130
REMARK   59  A    between atoms: _129  and  _132
REMARK   60  A    between atoms: _132  and  _133
REMARK   61  A    between atoms: _133  and  _134
REMARK   62  A    between atoms: _136  and  _138
REMARK   63  A    between atoms: _138  and  _139
REMARK   64  A    between atoms: _138  and  _141
REMARK   65  A    between atoms: _141  and  _142
REMARK   66  A    between atoms: _145  and  _147
REMARK   67  A    between atoms: _147  and  _148
REMARK   68  A    between atoms: _147  and  _150
REMARK   69  A    between atoms: _150  and  _151
REMARK   70  A    between atoms: _151  and  _152
REMARK   71  A    between atoms: _155  and  _157
REMARK   72  A    between atoms: _157  and  _158
REMARK   73  A    between atoms: _157  and  _160
REMARK   74  A    between atoms: _160  and  _161
REMARK   75  A    between atoms: _161  and  _163
REMARK   76  A    between atoms: _163  and  ZN_395
REMARK   77  A    between atoms: _164  and  _166
REMARK   78  A    between atoms: _166  and  _167
REMARK   79  A    between atoms: _166  and  _169
REMARK   80  A    between atoms: _171  and  _173
REMARK   81  A    between atoms: _173  and  _174
REMARK   82  A    between atoms: _177  and  _179
REMARK   83  A    between atoms: _179  and  _180
REMARK   84  A    between atoms: _183  and  _185
REMARK   85  A    between atoms: _185  and  _186
REMARK   86  A    between atoms: _185  and  _188
REMARK   87  A    between atoms: _188  and  _189
REMARK   88  A    between atoms: _189  and  _190
REMARK   89  A    between atoms: _193  and  _195
REMARK   90  A    between atoms: _195  and  _196
REMARK   91  A    between atoms: _195  and  _198
REMARK   92  A    between atoms: _198  and  _199
REMARK   93  A    between atoms: _199  and  _200
REMARK   94  A    between atoms: _200  and  _202
REMARK   95  A    between atoms: _202  and  ZN_395
REMARK   96  A    between atoms: _203  and  _205
REMARK   97  A    between atoms: _205  and  _206
REMARK   98  A    between atoms: _205  and  _208
REMARK   99  A    between atoms: _208  and  _209
REMARK  100  A    between atoms: _212  and  _214
REMARK  101  A    between atoms: _214  and  _215
REMARK  102  A    between atoms: _214  and  _217
REMARK  103  A    between atoms: _220  and  _222
REMARK  104  A    between atoms: _222  and  _223
REMARK  105  A    between atoms: _225  and  _227
REMARK  106  A    between atoms: _227  and  _228
REMARK  107  A    between atoms: _227  and  _230
REMARK  108  A    between atoms: _230  and  _231
REMARK  109  A    between atoms: _231  and  _233
REMARK  110  A    between atoms: _233  and  ZN_395
REMARK  111  A    between atoms: _234  and  _236
REMARK  112  A    between atoms: _236  and  _237
REMARK  113  A    between atoms: _236  and  _239
REMARK  114  A    between atoms: _239  and  _240
REMARK  115  A    between atoms: _243  and  _245
REMARK  116  A    between atoms: _245  and  _246
REMARK  117  A    between atoms: _245  and  _248
REMARK  118  A    between atoms: _248  and  _249
REMARK  119  A    between atoms: _252  and  _254
REMARK  120  A    between atoms: _254  and  _255
REMARK  121  A    between atoms: _254  and  _257
REMARK  122  A    between atoms: _257  and  _258
REMARK  123  A    between atoms: _261  and  _263
REMARK  124  A    between atoms: _263  and  _264
REMARK  125  A    between atoms: _263  and  _266
REMARK  126  A    between atoms: _266  and  _267
REMARK  127  A    between atoms: _267  and  _268
REMARK  128  A    between atoms: _268  and  _269
REMARK  129  A    between atoms: _269  and  _270
REMARK  130  A    between atoms: _274  and  _276
REMARK  131  A    between atoms: _276  and  _277
REMARK  132  A    between atoms: _276  and  _279
REMARK  133  A    between atoms: _279  and  _280
REMARK  134  A    between atoms: _285  and  _287
REMARK  135  A    between atoms: _287  and  _288
REMARK  136  A    between atoms: _287  and  _290
REMARK  137  A    between atoms: _290  and  _291
REMARK  138  A    between atoms: _291  and  _292
REMARK  139  A    between atoms: _297  and  _299
REMARK  140  A    between atoms: _299  and  _300
REMARK  141  A    between atoms: _299  and  _302
REMARK  142  A    between atoms: _302  and  _303
REMARK  143  A    between atoms: _303  and  _304
REMARK  144  A    between atoms: _306  and  _308
REMARK  145  A    between atoms: _308  and  _309
REMARK  146  A    between atoms: _308  and  _311
REMARK  147  A    between atoms: _311  and  _312
REMARK  148  A    between atoms: _314  and  _316
REMARK  149  A    between atoms: _316  and  _317
REMARK  150  A    between atoms: _316  and  _319
REMARK  151  A    between atoms: _319  and  _320
REMARK  152  A    between atoms: _325  and  _327
REMARK  153  A    between atoms: _327  and  _328
REMARK  154  A    between atoms: _327  and  _330
REMARK  155  A    between atoms: _330  and  _331
REMARK  156  A    between atoms: _331  and  _332
REMARK  157  A    between atoms: _332  and  _333
REMARK  158  A    between atoms: _342  and  _344
REMARK  159  A    between atoms: _344  and  _345
REMARK  160  A    between atoms: _344  and  _347
REMARK  161  A    between atoms: _347  and  _348
REMARK  162  A    between atoms: _350  and  _352
REMARK  163  A    between atoms: _352  and  _353
REMARK  164  A    between atoms: _355  and  _357
REMARK  165  A    between atoms: _357  and  _358
REMARK  166  A    between atoms: _357  and  _360
REMARK  167  A    between atoms: _360  and  _361
REMARK  168  A    between atoms: _361  and  _362
REMARK  169  A    between atoms: _365  and  _367
REMARK  170  A    between atoms: _367  and  _368
REMARK  171  A    between atoms: _367  and  _370
REMARK  172  A    between atoms: _370  and  _371
REMARK  173  A    between atoms: _371  and  _372
REMARK  174  A    between atoms: _372  and  _373
REMARK  175  A    between atoms: _373  and  _374
REMARK  176  A    between atoms: _378  and  _380
REMARK  177  A    between atoms: _380  and  _381
REMARK  178  A    between atoms: _380  and  _383
REMARK  179  A    between atoms: _383  and  _384
REMARK  180  A    between atoms: _384  and  _385
REMARK  181  A    between atoms: _385  and  _386
REMARK                            x       y       z     vdW  Elec       q    Type
REMARK                         _______ _______ _______ _____ _____    ______ ____
ROOT
ATOM      1  NE  ARG A   1       2.808  28.314  37.398  0.00  0.00    -0.265 N 
ATOM      2  HE  ARG A   1       2.328  28.989  38.027  0.00  0.00    +0.259 HD
ATOM      3  CZ  ARG A   1       4.137  28.371  37.319  0.00  0.00    +0.342 C 
ATOM      4  NH2 ARG A   1       4.778  29.269  38.044  0.00  0.00    -0.292 N 
ATOM      5 HH21 ARG A   1       4.246  29.915  38.662  0.00  0.00    +0.255 HD
ATOM      6 HH22 ARG A   1       5.815  29.331  37.997  0.00  0.00    +0.255 HD
ATOM      7  NH1 ARG A   1       4.812  27.478  36.591  0.00  0.00    -0.292 N 
ATOM      8 HH11 ARG A   1       5.849  27.530  36.535  0.00  0.00    +0.255 HD
ATOM      9 HH12 ARG A   1       4.301  26.730  36.080  0.00  0.00    +0.255 HD
ENDROOT
BRANCH   1  10
ATOM     10  CD  ARG A   1       1.983  27.363  36.657  0.00  0.00    +0.174 C 
BRANCH  10  11
ATOM     11  CG  ARG A   1       1.165  28.104  35.588  0.00  0.00    +0.045 C 
BRANCH  11  12
ATOM     12  CB  ARG A   1       0.009  28.861  36.245  0.00  0.00    +0.029 C 
BRANCH  12  13
ATOM     13  CA  ARG A   1      -0.988  29.433  35.221  0.00  0.00    +0.133 C 
BRANCH  13  14
ATOM     14  N   ARG A   1      -0.484  30.710  34.655  0.00  0.00    -0.239 NA
ATOM     15  H   ARG A   1      -0.006  31.383  35.287  0.00  0.00    +0.142 HD
ENDBRANCH  13  14
BRANCH  13  16
ATOM     16  C   ARG A   1      -2.357  29.563  35.897  0.00  0.00    +0.224 C 
ATOM     17  O   ARG A   1      -2.906  28.577  36.417  0.00  0.00    -0.287 OA
ENDBRANCH  13  16
ENDBRANCH  12  13
ENDBRANCH  11  12
ENDBRANCH  10  11
ENDBRANCH   1  10
TORSDOF 6
REMARK  Name = ../refined-set-2016/2ptz/2ptz_pocket.pdb
REMARK  181 active torsions:
REMARK  status: ('A' for Active; 'I' for Inactive)
REMARK    1  A    between atoms: _1  and  _3
REMARK    2  A    between atoms: _3  and  _4
REMARK    3  A    between atoms: _3  and  _6
REMARK    4  A    between atoms: _6  and  _7
REMARK    5  A    between atoms: _7  and  _8
REMARK    6  A    between atoms: _8  and  _9
REMARK    7  A    between atoms: _19  and  _20
REMARK    8  A    between atoms: _25  and  _27
REMARK    9  A    between atoms: _27  and  _28
REMARK   10  A    between atoms: _27  and  _30
REMARK   11  A    between atoms: _30  and  _31
REMARK   12  A    between atoms: _33  and  _35
REMARK   13  A    between atoms: _35  and  _36
REMARK   14  A    between atoms: _38  and  _40
REMARK   15  A    between atoms: _40  and  _41
REMARK   16  A    between atoms: _44  and  _46
REMARK   17  A    between atoms: _46  and  _47
REMARK   18  A    between atoms: _46  and  _49
REMARK   19  A    between atoms: _47  and  _48
REMARK   20  A    between atoms: _47  and  _52
REMARK   21  A    between atoms: _48  and  ZN_396
REMARK   22  A    between atoms: _49  and  _50
REMARK   23  A    between atoms: _52  and  _54
REMARK   24  A    between atoms: _54  and  _55
REMARK   25  A    between atoms: _54  and  _57
REMARK   26  A    between atoms: _57  and  _58
REMARK   27  A    between atoms: _61  and  _63
REMARK   28  A    between atoms: _63  and  _64
REMARK   29  A    between atoms: _66  and  _68
REMARK   30  A    between atoms: _68  and  _69
REMARK   31  A    between atoms: _68  and  _71
REMARK   32  A    between atoms: _71  and  _72
REMARK   33  A    between atoms: _72  and  _73
REMARK   34  A    between atoms: _76  and  _78
REMARK   35  A    between atoms: _78  and  _79
REMARK   36  A    between atoms: _78  and  _81
REMARK   37  A    between atoms: _81  and  _82
REMARK   38  A    between atoms: _87  and  _89
REMARK   39  A    between atoms: _89  and  _90
REMARK   40  A    between atoms: _92  and  _94
REMARK   41  A    between atoms: _94  and  _95
REMARK   42  A    between atoms: _94  and  _97
REMARK   43  A    between atoms: _97  and  _98
REMARK   44  A    between atoms: _98  and  _99
REMARK   45  A    between atoms: _99  and  _100
REMARK   46  A    between atoms: _100  and  _101
REMARK   47  A    between atoms: _105  and  _107
REMARK   48  A    between atoms: _107  and  _108
REMARK   49  A    between atoms: _107  and  _110
REMARK   50  A    between atoms: _110  and  _111
REMARK   51  A    between atoms: _111  and  _112
REMARK   52  A    between atoms: _117  and  _119
REMARK   53  A    between atoms: _119  and  _120
REMARK   54  A    between atoms: _119  and  _122
REMARK   55  A    between atoms: _122  and  _123
REMARK   56  A    between atoms: _123  and  _124
REMARK   57  A    between atoms: _127  and  _129
REMARK   58  A    between atoms: _129  and  _130
REMARK   59  A    between atoms: _129  and  _132
REMARK   60  A    between atoms: _132  and  _133
REMARK   61  A    between atoms: _133  and  _134
REMARK   62  A    between atoms: _136  and  _138
REMARK   63  A    between atoms: _138  and  _139
REMARK   64  A    between atoms: _138  and  _141
REMARK   65  A    between atoms: _141  and  _142
REMARK   66  A    between atoms: _145  and  _147
REMARK   67  A    between atoms: _147  and  _148
REMARK   68  A    between atoms: _147  and  _150
REMARK   69  A    between atoms: _150  and  _151
REMARK   70  A    between atoms: _151  and  _152
REMARK   71  A    between atoms: _155  and  _157
REMARK   72  A    between atoms: _157  and  _158
REMARK   73  A    between atoms: _157  and  _160
REMARK   74  A    between atoms: _160  and  _161
REMARK   75  A    between atoms: _161  and  _163
REMARK   76  A    between atoms: _163  and  ZN_395
REMARK   77  A    between atoms: _164  and  _166
REMARK   78  A    between atoms: _166  and  _167
REMARK   79  A    between atoms: _166  and  _169
REMARK   80  A    between atoms: _171  and  _173
REMARK   81  A    between atoms: _173  and  _174
REMARK   82  A    between atoms: _177  and  _179
REMARK   83  A    between atoms: _179  and  _180
REMARK   84  A    between atoms: _183  and  _185
REMARK   85  A    between atoms: _185  and  _186
REMARK   86  A    between atoms: _185  and  _188
REMARK   87  A    between atoms: _188  and  _189
REMARK   88  A    between atoms: _189  and  _190
REMARK   89  A    between atoms: _193  and  _195
REMARK   90  A    between atoms: _195  and  _196
REMARK   91  A    between atoms: _195  and  _198
REMARK   92  A    between atoms: _198  and  _199
REMARK   93  A    between atoms: _199  and  _200
REMARK   94  A    between atoms: _200  and  _202
REMARK   95  A    between atoms: _202  and  ZN_395
REMARK   96  A    between atoms: _203  and  _205
REMARK   97  A    between atoms: _205  and  _206
REMARK   98  A    between atoms: _205  and  _208
REMARK   99  A    between atoms: _208  and  _209
REMARK  100  A    between atoms: _212  and  _214
REMARK  101  A    between atoms: _214  and  _215
REMARK  102  A    between atoms: _214  and  _217
REMARK  103  A    between atoms: _220  and  _222
REMARK  104  A    between atoms: _222  and  _223
REMARK  105  A    between atoms: _225  and  _227
REMARK  106  A    between atoms: _227  and  _228
REMARK  107  A    between atoms: _227  and  _230
REMARK  108  A    between atoms: _230  and  _231
REMARK  109  A    between atoms: _231  and  _233
REMARK  110  A    between atoms: _233  and  ZN_395
REMARK  111  A    between atoms: _234  and  _236
REMARK  112  A    between atoms: _236  and  _237
REMARK  113  A    between atoms: _236  and  _239
REMARK  114  A    between atoms: _239  and  _240
REMARK  115  A    between atoms: _243  and  _245
REMARK  116  A    between atoms: _245  and  _246
REMARK  117  A    between atoms: _245  and  _248
REMARK  118  A    between atoms: _248  and  _249
REMARK  119  A    between atoms: _252  and  _254
REMARK  120  A    between atoms: _254  and  _255
REMARK  121  A    between atoms: _254  and  _257
REMARK  122  A    between atoms: _257  and  _258
REMARK  123  A    between atoms: _261  and  _263
REMARK  124  A    between atoms: _263  and  _264
REMARK  125  A    between atoms: _263  and  _266
REMARK  126  A    between atoms: _266  and  _267
REMARK  127  A    between atoms: _267  and  _268
REMARK  128  A    between atoms: _268  and  _269
REMARK  129  A    between atoms: _269  and  _270
REMARK  130  A    between atoms: _274  and  _276
REMARK  131  A    between atoms: _276  and  _277
REMARK  132  A    between atoms: _276  and  _279
REMARK  133  A    between atoms: _279  and  _280
REMARK  134  A    between atoms: _285  and  _287
REMARK  135  A    between atoms: _287  and  _288
REMARK  136  A    between atoms: _287  and  _290
REMARK  137  A    between atoms: _290  and  _291
REMARK  138  A    between atoms: _291  and  _292
REMARK  139  A    between atoms: _297  and  _299
REMARK  140  A    between atoms: _299  and  _300
REMARK  141  A    between atoms: _299  and  _302
REMARK  142  A    between atoms: _302  and  _303
REMARK  143  A    between atoms: _303  and  _304
REMARK  144  A    between atoms: _306  and  _308
REMARK  145  A    between atoms: _308  and  _309
REMARK  146  A    between atoms: _308  and  _311
REMARK  147  A    between atoms: _311  and  _312
REMARK  148  A    between atoms: _314  and  _316
REMARK  149  A    between atoms: _316  and  _317
REMARK  150  A    between atoms: _316  and  _319
REMARK  151  A    between atoms: _319  and  _320
REMARK  152  A    between atoms: _325  and  _327
REMARK  153  A    between atoms: _327  and  _328
REMARK  154  A    between atoms: _327  and  _330
REMARK  155  A    between atoms: _330  and  _331
REMARK  156  A    between atoms: _331  and  _332
REMARK  157  A    between atoms: _332  and  _333
REMARK  158  A    between atoms: _342  and  _344
REMARK  159  A    between atoms: _344  and  _345
REMARK  160  A    between atoms: _344  and  _347
REMARK  161  A    between atoms: _347  and  _348
REMARK  162  A    between atoms: _350  and  _352
REMARK  163  A    between atoms: _352  and  _353
REMARK  164  A    between atoms: _355  and  _357
REMARK  165  A    between atoms: _357  and  _358
REMARK  166  A    between atoms: _357  and  _360
REMARK  167  A    between atoms: _360  and  _361
REMARK  168  A    between atoms: _361  and  _362
REMARK  169  A    between atoms: _365  and  _367
REMARK  170  A    between atoms: _367  and  _368
REMARK  171  A    between atoms: _367  and  _370
REMARK  172  A    between atoms: _370  and  _371
REMARK  173  A    between atoms: _371  and  _372
REMARK  174  A    between atoms: _372  and  _373
REMARK  175  A    between atoms: _373  and  _374
REMARK  176  A    between atoms: _378  and  _380
REMARK  177  A    between atoms: _380  and  _381
REMARK  178  A    between atoms: _380  and  _383
REMARK  179  A    between atoms: _383  and  _384
REMARK  180  A    between atoms: _384  and  _385
REMARK  181  A    between atoms: _385  and  _386
REMARK                            x       y       z     vdW  Elec       q    Type
REMARK                         _______ _______ _______ _____ _____    ______ ____
ROOT
ATOM      1  C   ALA A   4       8.607  26.737  41.145  0.00  0.00    +0.000 C 
ATOM      2  O   ALA A   4       8.515  26.302  42.310  0.00  0.00    +0.000 OA
ATOM      3  N   UNK A   5       9.732  26.620  40.412  0.00  0.00    +0.000 N 
ATOM      4  H   UNK A   5       9.732  26.932  39.420  0.00  0.00    +0.000 HD
ENDROOT
BRANCH   1   5
ATOM      5  CA  ALA A   4       7.405  27.397  40.465  0.00  0.00    +0.000 C 
ATOM      6  CB  ALA A   4       6.794  26.442  39.397  0.00  0.00    +0.000 C 
BRANCH   5   9
ATOM      7  C   GLY A   3       7.532  29.827  40.480  0.00  0.00    +0.000 C 
ATOM      8  O   GLY A   3       6.699  29.965  41.386  0.00  0.00    +0.000 OA
ATOM      9  N   ALA A   4       7.800  28.663  39.892  0.00  0.00    +0.000 N 
ATOM     10  H   ALA A   4       8.312  28.665  38.987  0.00  0.00    +0.000 HD
BRANCH   7  11
ATOM     11  CA  GLY A   3       8.307  31.013  39.908  0.00  0.00    +0.000 C 
BRANCH  11  13
ATOM     12  C   GLY A   2       6.625  32.682  39.449  0.00  0.00    +0.000 C 
ATOM     13  N   GLY A   3       7.655  32.275  40.191  0.00  0.00    +0.000 N 
ATOM     14  H   GLY A   3       7.992  32.867  40.977  0.00  0.00    +0.000 HD
ATOM     15  O   GLY A   2       6.193  32.048  38.455  0.00  0.00    +0.000 OA
BRANCH  12  16
ATOM     16  CA  GLY A   2       5.950  33.984  39.907  0.00  0.00    +0.000 C 
BRANCH  16  19
ATOM     17  C   THR A   1       6.006  36.185  38.929  0.00  0.00    +0.000 C 
ATOM     18  O   THR A   1       6.253  36.680  39.999  0.00  0.00    +0.000 OA
ATOM     19  N   GLY A   2       5.836  34.879  38.766  0.00  0.00    +0.000 N 
ATOM     20  H   GLY A   2       5.621  34.496  37.823  0.00  0.00    +0.000 HD
BRANCH  17  25
ATOM     21  N   THR A   1       6.010  38.475  38.110  0.00  0.00    +0.000 NA
ATOM     22  CD  THR A   1       7.375  39.028  37.913  0.00  0.00    +0.000 C 
ATOM     23  CG  THR A   1       8.170  37.784  37.415  0.00  0.00    +0.000 C 
ATOM     24  CB  THR A   1       7.184  36.880  36.812  0.00  0.00    +0.000 C 
ATOM     25  CA  THR A   1       5.930  37.075  37.697  0.00  0.00    +0.000 C 
ENDBRANCH  17  25
ENDBRANCH  16  19
BRANCH  16  26
ATOM     26  CB  GLY A   2       4.555  33.675  40.454  0.00  0.00    +0.000 C 
BRANCH  26  27
ATOM     27  O   GLY A   2       4.686  32.765  41.542  0.00  0.00    +0.000 OA
ATOM     28  H   GLY A   2       5.243  33.176  42.250  0.00  0.00    +0.000 HD
ENDBRANCH  26  27
ENDBRANCH  16  26
ENDBRANCH  12  16
ENDBRANCH  11  13
ENDBRANCH   7  11
ENDBRANCH   5   9
ENDBRANCH   1   5
BRANCH   3  29
ATOM     29  C   UNK A   5      10.941  26.066  40.987  0.00  0.00    +0.000 C 
BRANCH  29  30
ATOM     30  C   UNK A   5      11.740  27.197  41.647  0.00  0.00    +0.000 C 
BRANCH  30  31
ATOM     31  N   THR A   1      11.177  27.731  42.720  0.00  0.00    +0.000 NA
ATOM     32  H   THR A   1      10.314  27.302  43.112  0.00  0.00    +0.000 HD
BRANCH  31  33
ATOM     33  CA  THR A   1      11.749  28.916  43.364  0.00  0.00    +0.000 C 
BRANCH  33  34
ATOM     34  C   THR A   1      12.919  28.501  44.267  0.00  0.00    +0.000 C 
ATOM     35  O   THR A   1      12.809  27.551  45.071  0.00  0.00    +0.000 OA
ATOM     36  N   GLY A   2      14.045  29.195  44.114  0.00  0.00    +0.000 N 
ATOM     37  H   GLY A   2      14.101  29.936  43.386  0.00  0.00    +0.000 HD
BRANCH  36  38
ATOM     38  CA  GLY A   2      15.212  28.919  44.970  0.00  0.00    +0.000 C 
BRANCH  38  39
ATOM     39  C   GLY A   2      14.899  29.271  46.407  0.00  0.00    +0.000 C 
ATOM     40  O   GLY A   2      14.120  30.223  46.683  0.00  0.00    +0.000 OA
ENDBRANCH  38  39
ENDBRANCH  36  38
ENDBRANCH  33  34
BRANCH  33  41
ATOM     41  CB  THR A   1      10.672  29.664  44.184  0.00  0.00    +0.000 C 
ATOM     42  CG2 THR A   1       9.688  30.411  43.250  0.00  0.00    +0.000 C 
BRANCH  41  43
ATOM     43  OG1 THR A   1       9.955  28.707  44.953  0.00  0.00    +0.000 OA
ATOM     44  HG1 THR A   1       9.259  29.168  45.486  0.00  0.00    +0.000 HD
ENDBRANCH  41  43
ENDBRANCH  33  41
ENDBRANCH  31  33
ENDBRANCH  30  31
BRANCH  30  45
ATOM     45  O   UNK A   5      12.830  27.596  41.210  0.00  0.00    +0.000 OA
BRANCH  45  46
ATOM     46 ZN   UNK A   5      13.285  27.755  39.203  0.00  0.00    +0.000 Zn
ATOM     47  O   UNK A   5      14.574  29.370  39.838  0.00  0.00    +0.000 OA
ATOM     48  O   UNK A   5      14.887  26.225  39.452  0.00  0.00    +0.000 OA
ENDBRANCH  45  46
ENDBRANCH  30  45
ENDBRANCH  29  30
BRANCH  29  49
ATOM     49  C   UNK A   5      11.732  25.298  39.932  0.00  0.00    +0.000 C 
BRANCH  49  50
ATOM     50  O   UNK A   5      11.961  26.091  38.799  0.00  0.00    +0.000 OA
ATOM     51  H   UNK A   5      12.476  26.895  39.059  0.00  0.00    +0.000 HD
ENDBRANCH  49  50
ENDBRANCH  29  49
ENDBRANCH   3  29
TORSDOF 22
REMARK  Name = ../refined-set-2016/2ptz/2ptz_pocket.pdb
REMARK  181 active torsions:
REMARK  status: ('A' for Active; 'I' for Inactive)
REMARK    1  A    between atoms: _1  and  _3
REMARK    2  A    between atoms: _3  and  _4
REMARK    3  A    between atoms: _3  and  _6
REMARK    4  A    between atoms: _6  and  _7
REMARK    5  A    between atoms: _7  and  _8
REMARK    6  A    between atoms: _8  and  _9
REMARK    7  A    between atoms: _19  and  _20
REMARK    8  A    between atoms: _25  and  _27
REMARK    9  A    between atoms: _27  and  _28
REMARK   10  A    between atoms: _27  and  _30
REMARK   11  A    between atoms: _30  and  _31
REMARK   12  A    between atoms: _33  and  _35
REMARK   13  A    between atoms: _35  and  _36
REMARK   14  A    between atoms: _38  and  _40
REMARK   15  A    between atoms: _40  and  _41
REMARK   16  A    between atoms: _44  and  _46
REMARK   17  A    between atoms: _46  and  _47
REMARK   18  A    between atoms: _46  and  _49
REMARK   19  A    between atoms: _47  and  _48
REMARK   20  A    between atoms: _47  and  _52
REMARK   21  A    between atoms: _48  and  ZN_396
REMARK   22  A    between atoms: _49  and  _50
REMARK   23  A    between atoms: _52  and  _54
REMARK   24  A    between atoms: _54  and  _55
REMARK   25  A    between atoms: _54  and  _57
REMARK   26  A    between atoms: _57  and  _58
REMARK   27  A    between atoms: _61  and  _63
REMARK   28  A    between atoms: _63  and  _64
REMARK   29  A    between atoms: _66  and  _68
REMARK   30  A    between atoms: _68  and  _69
REMARK   31  A    between atoms: _68  and  _71
REMARK   32  A    between atoms: _71  and  _72
REMARK   33  A    between atoms: _72  and  _73
REMARK   34  A    between atoms: _76  and  _78
REMARK   35  A    between atoms: _78  and  _79
REMARK   36  A    between atoms: _78  and  _81
REMARK   37  A    between atoms: _81  and  _82
REMARK   38  A    between atoms: _87  and  _89
REMARK   39  A    between atoms: _89  and  _90
REMARK   40  A    between atoms: _92  and  _94
REMARK   41  A    between atoms: _94  and  _95
REMARK   42  A    between atoms: _94  and  _97
REMARK   43  A    between atoms: _97  and  _98
REMARK   44  A    between atoms: _98  and  _99
REMARK   45  A    between atoms: _99  and  _100
REMARK   46  A    between atoms: _100  and  _101
REMARK   47  A    between atoms: _105  and  _107
REMARK   48  A    between atoms: _107  and  _108
REMARK   49  A    between atoms: _107  and  _110
REMARK   50  A    between atoms: _110  and  _111
REMARK   51  A    between atoms: _111  and  _112
REMARK   52  A    between atoms: _117  and  _119
REMARK   53  A    between atoms: _119  and  _120
REMARK   54  A    between atoms: _119  and  _122
REMARK   55  A    between atoms: _122  and  _123
REMARK   56  A    between atoms: _123  and  _124
REMARK   57  A    between atoms: _127  and  _129
REMARK   58  A    between atoms: _129  and  _130
REMARK   59  A    between atoms: _129  and  _132
REMARK   60  A    between atoms: _132  and  _133
REMARK   61  A    between atoms: _133  and  _134
REMARK   62  A    between atoms: _136  and  _138
REMARK   63  A    between atoms: _138  and  _139
REMARK   64  A    between atoms: _138  and  _141
REMARK   65  A    between atoms: _141  and  _142
REMARK   66  A    between atoms: _145  and  _147
REMARK   67  A    between atoms: _147  and  _148
REMARK   68  A    between atoms: _147  and  _150
REMARK   69  A    between atoms: _150  and  _151
REMARK   70  A    between atoms: _151  and  _152
REMARK   71  A    between atoms: _155  and  _157
REMARK   72  A    between atoms: _157  and  _158
REMARK   73  A    between atoms: _157  and  _160
REMARK   74  A    between atoms: _160  and  _161
REMARK   75  A    between atoms: _161  and  _163
REMARK   76  A    between atoms: _163  and  ZN_395
REMARK   77  A    between atoms: _164  and  _166
REMARK   78  A    between atoms: _166  and  _167
REMARK   79  A    between atoms: _166  and  _169
REMARK   80  A    between atoms: _171  and  _173
REMARK   81  A    between atoms: _173  and  _174
REMARK   82  A    between atoms: _177  and  _179
REMARK   83  A    between atoms: _179  and  _180
REMARK   84  A    between atoms: _183  and  _185
REMARK   85  A    between atoms: _185  and  _186
REMARK   86  A    between atoms: _185  and  _188
REMARK   87  A    between atoms: _188  and  _189
REMARK   88  A    between atoms: _189  and  _190
REMARK   89  A    between atoms: _193  and  _195
REMARK   90  A    between atoms: _195  and  _196
REMARK   91  A    between atoms: _195  and  _198
REMARK   92  A    between atoms: _198  and  _199
REMARK   93  A    between atoms: _199  and  _200
REMARK   94  A    between atoms: _200  and  _202
REMARK   95  A    between atoms: _202  and  ZN_395
REMARK   96  A    between atoms: _203  and  _205
REMARK   97  A    between atoms: _205  and  _206
REMARK   98  A    between atoms: _205  and  _208
REMARK   99  A    between atoms: _208  and  _209
REMARK  100  A    between atoms: _212  and  _214
REMARK  101  A    between atoms: _214  and  _215
REMARK  102  A    between atoms: _214  and  _217
REMARK  103  A    between atoms: _220  and  _222
REMARK  104  A    between atoms: _222  and  _223
REMARK  105  A    between atoms: _225  and  _227
REMARK  106  A    between atoms: _227  and  _228
REMARK  107  A    between atoms: _227  and  _230
REMARK  108  A    between atoms: _230  and  _231
REMARK  109  A    between atoms: _231  and  _233
REMARK  110  A    between atoms: _233  and  ZN_395
REMARK  111  A    between atoms: _234  and  _236
REMARK  112  A    between atoms: _236  and  _237
REMARK  113  A    between atoms: _236  and  _239
REMARK  114  A    between atoms: _239  and  _240
REMARK  115  A    between atoms: _243  and  _245
REMARK  116  A    between atoms: _245  and  _246
REMARK  117  A    between atoms: _245  and  _248
REMARK  118  A    between atoms: _248  and  _249
REMARK  119  A    between atoms: _252  and  _254
REMARK  120  A    between atoms: _254  and  _255
REMARK  121  A    between atoms: _254  and  _257
REMARK  122  A    between atoms: _257  and  _258
REMARK  123  A    between atoms: _261  and  _263
REMARK  124  A    between atoms: _263  and  _264
REMARK  125  A    between atoms: _263  and  _266
REMARK  126  A    between atoms: _266  and  _267
REMARK  127  A    between atoms: _267  and  _268
REMARK  128  A    between atoms: _268  and  _269
REMARK  129  A    between atoms: _269  and  _270
REMARK  130  A    between atoms: _274  and  _276
REMARK  131  A    between atoms: _276  and  _277
REMARK  132  A    between atoms: _276  and  _279
REMARK  133  A    between atoms: _279  and  _280
REMARK  134  A    between atoms: _285  and  _287
REMARK  135  A    between atoms: _287  and  _288
REMARK  136  A    between atoms: _287  and  _290
REMARK  137  A    between atoms: _290  and  _291
REMARK  138  A    between atoms: _291  and  _292
REMARK  139  A    between atoms: _297  and  _299
REMARK  140  A    between atoms: _299  and  _300
REMARK  141  A    between atoms: _299  and  _302
REMARK  142  A    between atoms: _302  and  _303
REMARK  143  A    between atoms: _303  and  _304
REMARK  144  A    between atoms: _306  and  _308
REMARK  145  A    between atoms: _308  and  _309
REMARK  146  A    between atoms: _308  and  _311
REMARK  147  A    between atoms: _311  and  _312
REMARK  148  A    between atoms: _314  and  _316
REMARK  149  A    between atoms: _316  and  _317
REMARK  150  A    between atoms: _316  and  _319
REMARK  151  A    between atoms: _319  and  _320
REMARK  152  A    between atoms: _325  and  _327
REMARK  153  A    between atoms: _327  and  _328
REMARK  154  A    between atoms: _327  and  _330
REMARK  155  A    between atoms: _330  and  _331
REMARK  156  A    between atoms: _331  and  _332
REMARK  157  A    between atoms: _332  and  _333
REMARK  158  A    between atoms: _342  and  _344
REMARK  159  A    between atoms: _344  and  _345
REMARK  160  A    between atoms: _344  and  _347
REMARK  161  A    between atoms: _347  and  _348
REMARK  162  A    between atoms: _350  and  _352
REMARK  163  A    between atoms: _352  and  _353
REMARK  164  A    between atoms: _355  and  _357
REMARK  165  A    between atoms: _357  and  _358
REMARK  166  A    between atoms: _357  and  _360
REMARK  167  A    between atoms: _360  and  _361
REMARK  168  A    between atoms: _361  and  _362
REMARK  169  A    between atoms: _365  and  _367
REMARK  170  A    between atoms: _367  and  _368
REMARK  171  A    between atoms: _367  and  _370
REMARK  172  A    between atoms: _370  and  _371
REMARK  173  A    between atoms: _371  and  _372
REMARK  174  A    between atoms: _372  and  _373
REMARK  175  A    between atoms: _373  and  _374
REMARK  176  A    between atoms: _378  and  _380
REMARK  177  A    between atoms: _380  and  _381
REMARK  178  A    between atoms: _380  and  _383
REMARK  179  A    between atoms: _383  and  _384
REMARK  180  A    between atoms: _384  and  _385
REMARK  181  A    between atoms: _385  and  _386
REMARK                            x       y       z     vdW  Elec       q    Type
REMARK                         _______ _______ _______ _____ _____    ______ ____
ROOT
ATOM      1  CA  GLU A   1      14.650  34.084  46.612  0.00  0.00    +0.134 C 
ENDROOT
BRANCH   1   2
ATOM      2  N   GLU A   1      15.353  33.021  47.290  0.00  0.00    -0.239 NA
ATOM      3  H   GLU A   1      14.994  32.046  47.239  0.00  0.00    +0.142 HD
ENDBRANCH   1   2
BRANCH   1   4
ATOM      4  C   GLU A   1      14.004  34.997  47.632  0.00  0.00    +0.224 C 
ATOM      5  O   GLU A   1      13.608  34.588  48.718  0.00  0.00    -0.287 OA
ENDBRANCH   1   4
BRANCH   1   6
ATOM      6  CB  GLU A   1      13.618  33.522  45.675  0.00  0.00    +0.037 C 
BRANCH   6   7
ATOM      7  CG  GLU A   1      14.258  32.700  44.583  0.00  0.00    +0.116 C 
BRANCH   7   8
ATOM      8  CD  GLU A   1      13.320  32.443  43.432  0.00  0.00    +0.365 C 
ATOM      9  OE2 GLU A   1      12.297  33.143  43.342  0.00  0.00    -0.246 OA
ATOM     10  OE1 GLU A   1      13.613  31.577  42.599  0.00  0.00    -0.246 OA
ENDBRANCH   7   8
ENDBRANCH   6   7
ENDBRANCH   1   6
TORSDOF 5
REMARK  Name = ../refined-set-2016/2ptz/2ptz_pocket.pdb
REMARK  181 active torsions:
REMARK  status: ('A' for Active; 'I' for Inactive)
REMARK    1  A    between atoms: _1  and  _3
REMARK    2  A    between atoms: _3  and  _4
REMARK    3  A    between atoms: _3  and  _6
REMARK    4  A    between atoms: _6  and  _7
REMARK    5  A    between atoms: _7  and  _8
REMARK    6  A    between atoms: _8  and  _9
REMARK    7  A    between atoms: _19  and  _20
REMARK    8  A    between atoms: _25  and  _27
REMARK    9  A    between atoms: _27  and  _28
REMARK   10  A    between atoms: _27  and  _30
REMARK   11  A    between atoms: _30  and  _31
REMARK   12  A    between atoms: _33  and  _35
REMARK   13  A    between atoms: _35  and  _36
REMARK   14  A    between atoms: _38  and  _40
REMARK   15  A    between atoms: _40  and  _41
REMARK   16  A    between atoms: _44  and  _46
REMARK   17  A    between atoms: _46  and  _47
REMARK   18  A    between atoms: _46  and  _49
REMARK   19  A    between atoms: _47  and  _48
REMARK   20  A    between atoms: _47  and  _52
REMARK   21  A    between atoms: _48  and  ZN_396
REMARK   22  A    between atoms: _49  and  _50
REMARK   23  A    between atoms: _52  and  _54
REMARK   24  A    between atoms: _54  and  _55
REMARK   25  A    between atoms: _54  and  _57
REMARK   26  A    between atoms: _57  and  _58
REMARK   27  A    between atoms: _61  and  _63
REMARK   28  A    between atoms: _63  and  _64
REMARK   29  A    between atoms: _66  and  _68
REMARK   30  A    between atoms: _68  and  _69
REMARK   31  A    between atoms: _68  and  _71
REMARK   32  A    between atoms: _71  and  _72
REMARK   33  A    between atoms: _72  and  _73
REMARK   34  A    between atoms: _76  and  _78
REMARK   35  A    between atoms: _78  and  _79
REMARK   36  A    between atoms: _78  and  _81
REMARK   37  A    between atoms: _81  and  _82
REMARK   38  A    between atoms: _87  and  _89
REMARK   39  A    between atoms: _89  and  _90
REMARK   40  A    between atoms: _92  and  _94
REMARK   41  A    between atoms: _94  and  _95
REMARK   42  A    between atoms: _94  and  _97
REMARK   43  A    between atoms: _97  and  _98
REMARK   44  A    between atoms: _98  and  _99
REMARK   45  A    between atoms: _99  and  _100
REMARK   46  A    between atoms: _100  and  _101
REMARK   47  A    between atoms: _105  and  _107
REMARK   48  A    between atoms: _107  and  _108
REMARK   49  A    between atoms: _107  and  _110
REMARK   50  A    between atoms: _110  and  _111
REMARK   51  A    between atoms: _111  and  _112
REMARK   52  A    between atoms: _117  and  _119
REMARK   53  A    between atoms: _119  and  _120
REMARK   54  A    between atoms: _119  and  _122
REMARK   55  A    between atoms: _122  and  _123
REMARK   56  A    between atoms: _123  and  _124
REMARK   57  A    between atoms: _127  and  _129
REMARK   58  A    between atoms: _129  and  _130
REMARK   59  A    between atoms: _129  and  _132
REMARK   60  A    between atoms: _132  and  _133
REMARK   61  A    between atoms: _133  and  _134
REMARK   62  A    between atoms: _136  and  _138
REMARK   63  A    between atoms: _138  and  _139
REMARK   64  A    between atoms: _138  and  _141
REMARK   65  A    between atoms: _141  and  _142
REMARK   66  A    between atoms: _145  and  _147
REMARK   67  A    between atoms: _147  and  _148
REMARK   68  A    between atoms: _147  and  _150
REMARK   69  A    between atoms: _150  and  _151
REMARK   70  A    between atoms: _151  and  _152
REMARK   71  A    between atoms: _155  and  _157
REMARK   72  A    between atoms: _157  and  _158
REMARK   73  A    between atoms: _157  and  _160
REMARK   74  A    between atoms: _160  and  _161
REMARK   75  A    between atoms: _161  and  _163
REMARK   76  A    between atoms: _163  and  ZN_395
REMARK   77  A    between atoms: _164  and  _166
REMARK   78  A    between atoms: _166  and  _167
REMARK   79  A    between atoms: _166  and  _169
REMARK   80  A    between atoms: _171  and  _173
REMARK   81  A    between atoms: _173  and  _174
REMARK   82  A    between atoms: _177  and  _179
REMARK   83  A    between atoms: _179  and  _180
REMARK   84  A    between atoms: _183  and  _185
REMARK   85  A    between atoms: _185  and  _186
REMARK   86  A    between atoms: _185  and  _188
REMARK   87  A    between atoms: _188  and  _189
REMARK   88  A    between atoms: _189  and  _190
REMARK   89  A    between atoms: _193  and  _195
REMARK   90  A    between atoms: _195  and  _196
REMARK   91  A    between atoms: _195  and  _198
REMARK   92  A    between atoms: _198  and  _199
REMARK   93  A    between atoms: _199  and  _200
REMARK   94  A    between atoms: _200  and  _202
REMARK   95  A    between atoms: _202  and  ZN_395
REMARK   96  A    between atoms: _203  and  _205
REMARK   97  A    between atoms: _205  and  _206
REMARK   98  A    between atoms: _205  and  _208
REMARK   99  A    between atoms: _208  and  _209
REMARK  100  A    between atoms: _212  and  _214
REMARK  101  A    between atoms: _214  and  _215
REMARK  102  A    between atoms: _214  and  _217
REMARK  103  A    between atoms: _220  and  _222
REMARK  104  A    between atoms: _222  and  _223
REMARK  105  A    between atoms: _225  and  _227
REMARK  106  A    between atoms: _227  and  _228
REMARK  107  A    between atoms: _227  and  _230
REMARK  108  A    between atoms: _230  and  _231
REMARK  109  A    between atoms: _231  and  _233
REMARK  110  A    between atoms: _233  and  ZN_395
REMARK  111  A    between atoms: _234  and  _236
REMARK  112  A    between atoms: _236  and  _237
REMARK  113  A    between atoms: _236  and  _239
REMARK  114  A    between atoms: _239  and  _240
REMARK  115  A    between atoms: _243  and  _245
REMARK  116  A    between atoms: _245  and  _246
REMARK  117  A    between atoms: _245  and  _248
REMARK  118  A    between atoms: _248  and  _249
REMARK  119  A    between atoms: _252  and  _254
REMARK  120  A    between atoms: _254  and  _255
REMARK  121  A    between atoms: _254  and  _257
REMARK  122  A    between atoms: _257  and  _258
REMARK  123  A    between atoms: _261  and  _263
REMARK  124  A    between atoms: _263  and  _264
REMARK  125  A    between atoms: _263  and  _266
REMARK  126  A    between atoms: _266  and  _267
REMARK  127  A    between atoms: _267  and  _268
REMARK  128  A    between atoms: _268  and  _269
REMARK  129  A    between atoms: _269  and  _270
REMARK  130  A    between atoms: _274  and  _276
REMARK  131  A    between atoms: _276  and  _277
REMARK  132  A    between atoms: _276  and  _279
REMARK  133  A    between atoms: _279  and  _280
REMARK  134  A    between atoms: _285  and  _287
REMARK  135  A    between atoms: _287  and  _288
REMARK  136  A    between atoms: _287  and  _290
REMARK  137  A    between atoms: _290  and  _291
REMARK  138  A    between atoms: _291  and  _292
REMARK  139  A    between atoms: _297  and  _299
REMARK  140  A    between atoms: _299  and  _300
REMARK  141  A    between atoms: _299  and  _302
REMARK  142  A    between atoms: _302  and  _303
REMARK  143  A    between atoms: _303  and  _304
REMARK  144  A    between atoms: _306  and  _308
REMARK  145  A    between atoms: _308  and  _309
REMARK  146  A    between atoms: _308  and  _311
REMARK  147  A    between atoms: _311  and  _312
REMARK  148  A    between atoms: _314  and  _316
REMARK  149  A    between atoms: _316  and  _317
REMARK  150  A    between atoms: _316  and  _319
REMARK  151  A    between atoms: _319  and  _320
REMARK  152  A    between atoms: _325  and  _327
REMARK  153  A    between atoms: _327  and  _328
REMARK  154  A    between atoms: _327  and  _330
REMARK  155  A    between atoms: _330  and  _331
REMARK  156  A    between atoms: _331  and  _332
REMARK  157  A    between atoms: _332  and  _333
REMARK  158  A    between atoms: _342  and  _344
REMARK  159  A    between atoms: _344  and  _345
REMARK  160  A    between atoms: _344  and  _347
REMARK  161  A    between atoms: _347  and  _348
REMARK  162  A    between atoms: _350  and  _352
REMARK  163  A    between atoms: _352  and  _353
REMARK  164  A    between atoms: _355  and  _357
REMARK  165  A    between atoms: _357  and  _358
REMARK  166  A    between atoms: _357  and  _360
REMARK  167  A    between atoms: _360  and  _361
REMARK  168  A    between atoms: _361  and  _362
REMARK  169  A    between atoms: _365  and  _367
REMARK  170  A    between atoms: _367  and  _368
REMARK  171  A    between atoms: _367  and  _370
REMARK  172  A    between atoms: _370  and  _371
REMARK  173  A    between atoms: _371  and  _372
REMARK  174  A    between atoms: _372  and  _373
REMARK  175  A    between atoms: _373  and  _374
REMARK  176  A    between atoms: _378  and  _380
REMARK  177  A    between atoms: _380  and  _381
REMARK  178  A    between atoms: _380  and  _383
REMARK  179  A    between atoms: _383  and  _384
REMARK  180  A    between atoms: _384  and  _385
REMARK  181  A    between atoms: _385  and  _386
REMARK                            x       y       z     vdW  Elec       q    Type
REMARK                         _______ _______ _______ _____ _____    ______ ____
ROOT
ATOM      1  CB  ASN A   1      12.177  26.715  27.710  0.00  0.00    +0.110 C 
ENDROOT
BRANCH   1   2
ATOM      2  CG  ASN A   1      11.798  25.486  28.522  0.00  0.00    +0.221 C 
ATOM      3  ND2 ASN A   1      11.182  25.729  29.682  0.00  0.00    -0.329 N 
ATOM      4 HD21 ASN A   1      10.909  24.939  30.301  0.00  0.00    +0.145 HD
ATOM      5 HD22 ASN A   1      10.976  26.708  29.966  0.00  0.00    +0.145 HD
ATOM      6  OD1 ASN A   1      12.071  24.352  28.127  0.00  0.00    -0.275 OA
ENDBRANCH   1   2
BRANCH   1   7
ATOM      7  CA  ASN A   1      12.526  26.377  26.269  0.00  0.00    +0.142 C 
BRANCH   7   8
ATOM      8  N   ASN A   1      12.688  27.630  25.546  0.00  0.00    -0.239 NA
ATOM      9  H   ASN A   1      12.192  28.485  25.871  0.00  0.00    +0.142 HD
ENDBRANCH   7   8
BRANCH   7  10
ATOM     10  C   ASN A   1      11.445  25.590  25.569  0.00  0.00    +0.225 C 
ATOM     11  O   ASN A   1      10.257  25.813  25.798  0.00  0.00    -0.287 OA
ENDBRANCH   7  10
ENDBRANCH   1   7
TORSDOF 4
REMARK  Name = ../refined-set-2016/2ptz/2ptz_pocket.pdb
REMARK  181 active torsions:
REMARK  status: ('A' for Active; 'I' for Inactive)
REMARK    1  A    between atoms: _1  and  _3
REMARK    2  A    between atoms: _3  and  _4
REMARK    3  A    between atoms: _3  and  _6
REMARK    4  A    between atoms: _6  and  _7
REMARK    5  A    between atoms: _7  and  _8
REMARK    6  A    between atoms: _8  and  _9
REMARK    7  A    between atoms: _19  and  _20
REMARK    8  A    between atoms: _25  and  _27
REMARK    9  A    between atoms: _27  and  _28
REMARK   10  A    between atoms: _27  and  _30
REMARK   11  A    between atoms: _30  and  _31
REMARK   12  A    between atoms: _33  and  _35
REMARK   13  A    between atoms: _35  and  _36
REMARK   14  A    between atoms: _38  and  _40
REMARK   15  A    between atoms: _40  and  _41
REMARK   16  A    between atoms: _44  and  _46
REMARK   17  A    between atoms: _46  and  _47
REMARK   18  A    between atoms: _46  and  _49
REMARK   19  A    between atoms: _47  and  _48
REMARK   20  A    between atoms: _47  and  _52
REMARK   21  A    between atoms: _48  and  ZN_396
REMARK   22  A    between atoms: _49  and  _50
REMARK   23  A    between atoms: _52  and  _54
REMARK   24  A    between atoms: _54  and  _55
REMARK   25  A    between atoms: _54  and  _57
REMARK   26  A    between atoms: _57  and  _58
REMARK   27  A    between atoms: _61  and  _63
REMARK   28  A    between atoms: _63  and  _64
REMARK   29  A    between atoms: _66  and  _68
REMARK   30  A    between atoms: _68  and  _69
REMARK   31  A    between atoms: _68  and  _71
REMARK   32  A    between atoms: _71  and  _72
REMARK   33  A    between atoms: _72  and  _73
REMARK   34  A    between atoms: _76  and  _78
REMARK   35  A    between atoms: _78  and  _79
REMARK   36  A    between atoms: _78  and  _81
REMARK   37  A    between atoms: _81  and  _82
REMARK   38  A    between atoms: _87  and  _89
REMARK   39  A    between atoms: _89  and  _90
REMARK   40  A    between atoms: _92  and  _94
REMARK   41  A    between atoms: _94  and  _95
REMARK   42  A    between atoms: _94  and  _97
REMARK   43  A    between atoms: _97  and  _98
REMARK   44  A    between atoms: _98  and  _99
REMARK   45  A    between atoms: _99  and  _100
REMARK   46  A    between atoms: _100  and  _101
REMARK   47  A    between atoms: _105  and  _107
REMARK   48  A    between atoms: _107  and  _108
REMARK   49  A    between atoms: _107  and  _110
REMARK   50  A    between atoms: _110  and  _111
REMARK   51  A    between atoms: _111  and  _112
REMARK   52  A    between atoms: _117  and  _119
REMARK   53  A    between atoms: _119  and  _120
REMARK   54  A    between atoms: _119  and  _122
REMARK   55  A    between atoms: _122  and  _123
REMARK   56  A    between atoms: _123  and  _124
REMARK   57  A    between atoms: _127  and  _129
REMARK   58  A    between atoms: _129  and  _130
REMARK   59  A    between atoms: _129  and  _132
REMARK   60  A    between atoms: _132  and  _133
REMARK   61  A    between atoms: _133  and  _134
REMARK   62  A    between atoms: _136  and  _138
REMARK   63  A    between atoms: _138  and  _139
REMARK   64  A    between atoms: _138  and  _141
REMARK   65  A    between atoms: _141  and  _142
REMARK   66  A    between atoms: _145  and  _147
REMARK   67  A    between atoms: _147  and  _148
REMARK   68  A    between atoms: _147  and  _150
REMARK   69  A    between atoms: _150  and  _151
REMARK   70  A    between atoms: _151  and  _152
REMARK   71  A    between atoms: _155  and  _157
REMARK   72  A    between atoms: _157  and  _158
REMARK   73  A    between atoms: _157  and  _160
REMARK   74  A    between atoms: _160  and  _161
REMARK   75  A    between atoms: _161  and  _163
REMARK   76  A    between atoms: _163  and  ZN_395
REMARK   77  A    between atoms: _164  and  _166
REMARK   78  A    between atoms: _166  and  _167
REMARK   79  A    between atoms: _166  and  _169
REMARK   80  A    between atoms: _171  and  _173
REMARK   81  A    between atoms: _173  and  _174
REMARK   82  A    between atoms: _177  and  _179
REMARK   83  A    between atoms: _179  and  _180
REMARK   84  A    between atoms: _183  and  _185
REMARK   85  A    between atoms: _185  and  _186
REMARK   86  A    between atoms: _185  and  _188
REMARK   87  A    between atoms: _188  and  _189
REMARK   88  A    between atoms: _189  and  _190
REMARK   89  A    between atoms: _193  and  _195
REMARK   90  A    between atoms: _195  and  _196
REMARK   91  A    between atoms: _195  and  _198
REMARK   92  A    between atoms: _198  and  _199
REMARK   93  A    between atoms: _199  and  _200
REMARK   94  A    between atoms: _200  and  _202
REMARK   95  A    between atoms: _202  and  ZN_395
REMARK   96  A    between atoms: _203  and  _205
REMARK   97  A    between atoms: _205  and  _206
REMARK   98  A    between atoms: _205  and  _208
REMARK   99  A    between atoms: _208  and  _209
REMARK  100  A    between atoms: _212  and  _214
REMARK  101  A    between atoms: _214  and  _215
REMARK  102  A    between atoms: _214  and  _217
REMARK  103  A    between atoms: _220  and  _222
REMARK  104  A    between atoms: _222  and  _223
REMARK  105  A    between atoms: _225  and  _227
REMARK  106  A    between atoms: _227  and  _228
REMARK  107  A    between atoms: _227  and  _230
REMARK  108  A    between atoms: _230  and  _231
REMARK  109  A    between atoms: _231  and  _233
REMARK  110  A    between atoms: _233  and  ZN_395
REMARK  111  A    between atoms: _234  and  _236
REMARK  112  A    between atoms: _236  and  _237
REMARK  113  A    between atoms: _236  and  _239
REMARK  114  A    between atoms: _239  and  _240
REMARK  115  A    between atoms: _243  and  _245
REMARK  116  A    between atoms: _245  and  _246
REMARK  117  A    between atoms: _245  and  _248
REMARK  118  A    between atoms: _248  and  _249
REMARK  119  A    between atoms: _252  and  _254
REMARK  120  A    between atoms: _254  and  _255
REMARK  121  A    between atoms: _254  and  _257
REMARK  122  A    between atoms: _257  and  _258
REMARK  123  A    between atoms: _261  and  _263
REMARK  124  A    between atoms: _263  and  _264
REMARK  125  A    between atoms: _263  and  _266
REMARK  126  A    between atoms: _266  and  _267
REMARK  127  A    between atoms: _267  and  _268
REMARK  128  A    between atoms: _268  and  _269
REMARK  129  A    between atoms: _269  and  _270
REMARK  130  A    between atoms: _274  and  _276
REMARK  131  A    between atoms: _276  and  _277
REMARK  132  A    between atoms: _276  and  _279
REMARK  133  A    between atoms: _279  and  _280
REMARK  134  A    between atoms: _285  and  _287
REMARK  135  A    between atoms: _287  and  _288
REMARK  136  A    between atoms: _287  and  _290
REMARK  137  A    between atoms: _290  and  _291
REMARK  138  A    between atoms: _291  and  _292
REMARK  139  A    between atoms: _297  and  _299
REMARK  140  A    between atoms: _299  and  _300
REMARK  141  A    between atoms: _299  and  _302
REMARK  142  A    between atoms: _302  and  _303
REMARK  143  A    between atoms: _303  and  _304
REMARK  144  A    between atoms: _306  and  _308
REMARK  145  A    between atoms: _308  and  _309
REMARK  146  A    between atoms: _308  and  _311
REMARK  147  A    between atoms: _311  and  _312
REMARK  148  A    between atoms: _314  and  _316
REMARK  149  A    between atoms: _316  and  _317
REMARK  150  A    between atoms: _316  and  _319
REMARK  151  A    between atoms: _319  and  _320
REMARK  152  A    between atoms: _325  and  _327
REMARK  153  A    between atoms: _327  and  _328
REMARK  154  A    between atoms: _327  and  _330
REMARK  155  A    between atoms: _330  and  _331
REMARK  156  A    between atoms: _331  and  _332
REMARK  157  A    between atoms: _332  and  _333
REMARK  158  A    between atoms: _342  and  _344
REMARK  159  A    between atoms: _344  and  _345
REMARK  160  A    between atoms: _344  and  _347
REMARK  161  A    between atoms: _347  and  _348
REMARK  162  A    between atoms: _350  and  _352
REMARK  163  A    between atoms: _352  and  _353
REMARK  164  A    between atoms: _355  and  _357
REMARK  165  A    between atoms: _357  and  _358
REMARK  166  A    between atoms: _357  and  _360
REMARK  167  A    between atoms: _360  and  _361
REMARK  168  A    between atoms: _361  and  _362
REMARK  169  A    between atoms: _365  and  _367
REMARK  170  A    between atoms: _367  and  _368
REMARK  171  A    between atoms: _367  and  _370
REMARK  172  A    between atoms: _370  and  _371
REMARK  173  A    between atoms: _371  and  _372
REMARK  174  A    between atoms: _372  and  _373
REMARK  175  A    between atoms: _373  and  _374
REMARK  176  A    between atoms: _378  and  _380
REMARK  177  A    between atoms: _380  and  _381
REMARK  178  A    between atoms: _380  and  _383
REMARK  179  A    between atoms: _383  and  _384
REMARK  180  A    between atoms: _384  and  _385
REMARK  181  A    between atoms: _385  and  _386
REMARK                            x       y       z     vdW  Elec       q    Type
REMARK                         _______ _______ _______ _____ _____    ______ ____
ROOT
ATOM      1  CA  GLY A   1      10.053  19.126  32.106  0.00  0.00    +0.156 C 
ENDROOT
BRANCH   1   2
ATOM      2  N   GLY A   1      10.076  20.163  31.105  0.00  0.00    -0.238 NA
ATOM      3  H   GLY A   1      10.691  20.988  31.254  0.00  0.00    +0.142 HD
ENDBRANCH   1   2
BRANCH   1   4
ATOM      4  C   GLY A   1      10.053  19.712  33.507  0.00  0.00    +0.226 C 
ATOM      5  O   GLY A   1       9.668  20.874  33.735  0.00  0.00    -0.287 OA
ENDBRANCH   1   4
TORSDOF 2
REMARK  Name = ../refined-set-2016/2ptz/2ptz_pocket.pdb
REMARK  181 active torsions:
REMARK  status: ('A' for Active; 'I' for Inactive)
REMARK    1  A    between atoms: _1  and  _3
REMARK    2  A    between atoms: _3  and  _4
REMARK    3  A    between atoms: _3  and  _6
REMARK    4  A    between atoms: _6  and  _7
REMARK    5  A    between atoms: _7  and  _8
REMARK    6  A    between atoms: _8  and  _9
REMARK    7  A    between atoms: _19  and  _20
REMARK    8  A    between atoms: _25  and  _27
REMARK    9  A    between atoms: _27  and  _28
REMARK   10  A    between atoms: _27  and  _30
REMARK   11  A    between atoms: _30  and  _31
REMARK   12  A    between atoms: _33  and  _35
REMARK   13  A    between atoms: _35  and  _36
REMARK   14  A    between atoms: _38  and  _40
REMARK   15  A    between atoms: _40  and  _41
REMARK   16  A    between atoms: _44  and  _46
REMARK   17  A    between atoms: _46  and  _47
REMARK   18  A    between atoms: _46  and  _49
REMARK   19  A    between atoms: _47  and  _48
REMARK   20  A    between atoms: _47  and  _52
REMARK   21  A    between atoms: _48  and  ZN_396
REMARK   22  A    between atoms: _49  and  _50
REMARK   23  A    between atoms: _52  and  _54
REMARK   24  A    between atoms: _54  and  _55
REMARK   25  A    between atoms: _54  and  _57
REMARK   26  A    between atoms: _57  and  _58
REMARK   27  A    between atoms: _61  and  _63
REMARK   28  A    between atoms: _63  and  _64
REMARK   29  A    between atoms: _66  and  _68
REMARK   30  A    between atoms: _68  and  _69
REMARK   31  A    between atoms: _68  and  _71
REMARK   32  A    between atoms: _71  and  _72
REMARK   33  A    between atoms: _72  and  _73
REMARK   34  A    between atoms: _76  and  _78
REMARK   35  A    between atoms: _78  and  _79
REMARK   36  A    between atoms: _78  and  _81
REMARK   37  A    between atoms: _81  and  _82
REMARK   38  A    between atoms: _87  and  _89
REMARK   39  A    between atoms: _89  and  _90
REMARK   40  A    between atoms: _92  and  _94
REMARK   41  A    between atoms: _94  and  _95
REMARK   42  A    between atoms: _94  and  _97
REMARK   43  A    between atoms: _97  and  _98
REMARK   44  A    between atoms: _98  and  _99
REMARK   45  A    between atoms: _99  and  _100
REMARK   46  A    between atoms: _100  and  _101
REMARK   47  A    between atoms: _105  and  _107
REMARK   48  A    between atoms: _107  and  _108
REMARK   49  A    between atoms: _107  and  _110
REMARK   50  A    between atoms: _110  and  _111
REMARK   51  A    between atoms: _111  and  _112
REMARK   52  A    between atoms: _117  and  _119
REMARK   53  A    between atoms: _119  and  _120
REMARK   54  A    between atoms: _119  and  _122
REMARK   55  A    between atoms: _122  and  _123
REMARK   56  A    between atoms: _123  and  _124
REMARK   57  A    between atoms: _127  and  _129
REMARK   58  A    between atoms: _129  and  _130
REMARK   59  A    between atoms: _129  and  _132
REMARK   60  A    between atoms: _132  and  _133
REMARK   61  A    between atoms: _133  and  _134
REMARK   62  A    between atoms: _136  and  _138
REMARK   63  A    between atoms: _138  and  _139
REMARK   64  A    between atoms: _138  and  _141
REMARK   65  A    between atoms: _141  and  _142
REMARK   66  A    between atoms: _145  and  _147
REMARK   67  A    between atoms: _147  and  _148
REMARK   68  A    between atoms: _147  and  _150
REMARK   69  A    between atoms: _150  and  _151
REMARK   70  A    between atoms: _151  and  _152
REMARK   71  A    between atoms: _155  and  _157
REMARK   72  A    between atoms: _157  and  _158
REMARK   73  A    between atoms: _157  and  _160
REMARK   74  A    between atoms: _160  and  _161
REMARK   75  A    between atoms: _161  and  _163
REMARK   76  A    between atoms: _163  and  ZN_395
REMARK   77  A    between atoms: _164  and  _166
REMARK   78  A    between atoms: _166  and  _167
REMARK   79  A    between atoms: _166  and  _169
REMARK   80  A    between atoms: _171  and  _173
REMARK   81  A    between atoms: _173  and  _174
REMARK   82  A    between atoms: _177  and  _179
REMARK   83  A    between atoms: _179  and  _180
REMARK   84  A    between atoms: _183  and  _185
REMARK   85  A    between atoms: _185  and  _186
REMARK   86  A    between atoms: _185  and  _188
REMARK   87  A    between atoms: _188  and  _189
REMARK   88  A    between atoms: _189  and  _190
REMARK   89  A    between atoms: _193  and  _195
REMARK   90  A    between atoms: _195  and  _196
REMARK   91  A    between atoms: _195  and  _198
REMARK   92  A    between atoms: _198  and  _199
REMARK   93  A    between atoms: _199  and  _200
REMARK   94  A    between atoms: _200  and  _202
REMARK   95  A    between atoms: _202  and  ZN_395
REMARK   96  A    between atoms: _203  and  _205
REMARK   97  A    between atoms: _205  and  _206
REMARK   98  A    between atoms: _205  and  _208
REMARK   99  A    between atoms: _208  and  _209
REMARK  100  A    between atoms: _212  and  _214
REMARK  101  A    between atoms: _214  and  _215
REMARK  102  A    between atoms: _214  and  _217
REMARK  103  A    between atoms: _220  and  _222
REMARK  104  A    between atoms: _222  and  _223
REMARK  105  A    between atoms: _225  and  _227
REMARK  106  A    between atoms: _227  and  _228
REMARK  107  A    between atoms: _227  and  _230
REMARK  108  A    between atoms: _230  and  _231
REMARK  109  A    between atoms: _231  and  _233
REMARK  110  A    between atoms: _233  and  ZN_395
REMARK  111  A    between atoms: _234  and  _236
REMARK  112  A    between atoms: _236  and  _237
REMARK  113  A    between atoms: _236  and  _239
REMARK  114  A    between atoms: _239  and  _240
REMARK  115  A    between atoms: _243  and  _245
REMARK  116  A    between atoms: _245  and  _246
REMARK  117  A    between atoms: _245  and  _248
REMARK  118  A    between atoms: _248  and  _249
REMARK  119  A    between atoms: _252  and  _254
REMARK  120  A    between atoms: _254  and  _255
REMARK  121  A    between atoms: _254  and  _257
REMARK  122  A    between atoms: _257  and  _258
REMARK  123  A    between atoms: _261  and  _263
REMARK  124  A    between atoms: _263  and  _264
REMARK  125  A    between atoms: _263  and  _266
REMARK  126  A    between atoms: _266  and  _267
REMARK  127  A    between atoms: _267  and  _268
REMARK  128  A    between atoms: _268  and  _269
REMARK  129  A    between atoms: _269  and  _270
REMARK  130  A    between atoms: _274  and  _276
REMARK  131  A    between atoms: _276  and  _277
REMARK  132  A    between atoms: _276  and  _279
REMARK  133  A    between atoms: _279  and  _280
REMARK  134  A    between atoms: _285  and  _287
REMARK  135  A    between atoms: _287  and  _288
REMARK  136  A    between atoms: _287  and  _290
REMARK  137  A    between atoms: _290  and  _291
REMARK  138  A    between atoms: _291  and  _292
REMARK  139  A    between atoms: _297  and  _299
REMARK  140  A    between atoms: _299  and  _300
REMARK  141  A    between atoms: _299  and  _302
REMARK  142  A    between atoms: _302  and  _303
REMARK  143  A    between atoms: _303  and  _304
REMARK  144  A    between atoms: _306  and  _308
REMARK  145  A    between atoms: _308  and  _309
REMARK  146  A    between atoms: _308  and  _311
REMARK  147  A    between atoms: _311  and  _312
REMARK  148  A    between atoms: _314  and  _316
REMARK  149  A    between atoms: _316  and  _317
REMARK  150  A    between atoms: _316  and  _319
REMARK  151  A    between atoms: _319  and  _320
REMARK  152  A    between atoms: _325  and  _327
REMARK  153  A    between atoms: _327  and  _328
REMARK  154  A    between atoms: _327  and  _330
REMARK  155  A    between atoms: _330  and  _331
REMARK  156  A    between atoms: _331  and  _332
REMARK  157  A    between atoms: _332  and  _333
REMARK  158  A    between atoms: _342  and  _344
REMARK  159  A    between atoms: _344  and  _345
REMARK  160  A    between atoms: _344  and  _347
REMARK  161  A    between atoms: _347  and  _348
REMARK  162  A    between atoms: _350  and  _352
REMARK  163  A    between atoms: _352  and  _353
REMARK  164  A    between atoms: _355  and  _357
REMARK  165  A    between atoms: _357  and  _358
REMARK  166  A    between atoms: _357  and  _360
REMARK  167  A    between atoms: _360  and  _361
REMARK  168  A    between atoms: _361  and  _362
REMARK  169  A    between atoms: _365  and  _367
REMARK  170  A    between atoms: _367  and  _368
REMARK  171  A    between atoms: _367  and  _370
REMARK  172  A    between atoms: _370  and  _371
REMARK  173  A    between atoms: _371  and  _372
REMARK  174  A    between atoms: _372  and  _373
REMARK  175  A    between atoms: _373  and  _374
REMARK  176  A    between atoms: _378  and  _380
REMARK  177  A    between atoms: _380  and  _381
REMARK  178  A    between atoms: _380  and  _383
REMARK  179  A    between atoms: _383  and  _384
REMARK  180  A    between atoms: _384  and  _385
REMARK  181  A    between atoms: _385  and  _386
REMARK                            x       y       z     vdW  Elec       q    Type
REMARK                         _______ _______ _______ _____ _____    ______ ____
ROOT
ATOM      1  CG  LYS A   1       7.878  21.680  40.839  0.00  0.00    -0.000 C 
ENDROOT
BRANCH   1   2
ATOM      2  CB  LYS A   1       8.699  21.593  39.579  0.00  0.00    +0.025 C 
BRANCH   2   3
ATOM      3  CA  LYS A   1       8.234  20.539  38.554  0.00  0.00    +0.133 C 
BRANCH   3   4
ATOM      4  N   LYS A   1       9.260  20.403  37.524  0.00  0.00    -0.239 NA
ATOM      5  H   LYS A   1      10.096  21.018  37.579  0.00  0.00    +0.142 HD
ENDBRANCH   3   4
BRANCH   3   6
ATOM      6  C   LYS A   1       6.946  20.976  37.873  0.00  0.00    +0.224 C 
ATOM      7  O   LYS A   1       6.911  22.023  37.233  0.00  0.00    -0.287 OA
ENDBRANCH   3   6
ENDBRANCH   2   3
ENDBRANCH   1   2
BRANCH   1   8
ATOM      8  CD  LYS A   1       8.270  22.911  41.621  0.00  0.00    -0.024 C 
BRANCH   8   9
ATOM      9  CE  LYS A   1       7.356  23.099  42.816  0.00  0.00    -0.086 C 
BRANCH   9  10
ATOM     10  NZ  LYS A   1       8.024  23.943  43.843  0.00  0.00    +0.380 N 
ATOM     11  HZ1 LYS A   1       7.388  24.065  44.657  0.00  0.00    -0.089 HD
ATOM     12  HZ2 LYS A   1       8.902  23.479  44.154  0.00  0.00    -0.089 HD
ATOM     13  HZ3 LYS A   1       8.248  24.873  43.434  0.00  0.00    -0.089 HD
ENDBRANCH   9  10
ENDBRANCH   8   9
ENDBRANCH   1   8
TORSDOF 7
REMARK  Name = ../refined-set-2016/2ptz/2ptz_pocket.pdb
REMARK  181 active torsions:
REMARK  status: ('A' for Active; 'I' for Inactive)
REMARK    1  A    between atoms: _1  and  _3
REMARK    2  A    between atoms: _3  and  _4
REMARK    3  A    between atoms: _3  and  _6
REMARK    4  A    between atoms: _6  and  _7
REMARK    5  A    between atoms: _7  and  _8
REMARK    6  A    between atoms: _8  and  _9
REMARK    7  A    between atoms: _19  and  _20
REMARK    8  A    between atoms: _25  and  _27
REMARK    9  A    between atoms: _27  and  _28
REMARK   10  A    between atoms: _27  and  _30
REMARK   11  A    between atoms: _30  and  _31
REMARK   12  A    between atoms: _33  and  _35
REMARK   13  A    between atoms: _35  and  _36
REMARK   14  A    between atoms: _38  and  _40
REMARK   15  A    between atoms: _40  and  _41
REMARK   16  A    between atoms: _44  and  _46
REMARK   17  A    between atoms: _46  and  _47
REMARK   18  A    between atoms: _46  and  _49
REMARK   19  A    between atoms: _47  and  _48
REMARK   20  A    between atoms: _47  and  _52
REMARK   21  A    between atoms: _48  and  ZN_396
REMARK   22  A    between atoms: _49  and  _50
REMARK   23  A    between atoms: _52  and  _54
REMARK   24  A    between atoms: _54  and  _55
REMARK   25  A    between atoms: _54  and  _57
REMARK   26  A    between atoms: _57  and  _58
REMARK   27  A    between atoms: _61  and  _63
REMARK   28  A    between atoms: _63  and  _64
REMARK   29  A    between atoms: _66  and  _68
REMARK   30  A    between atoms: _68  and  _69
REMARK   31  A    between atoms: _68  and  _71
REMARK   32  A    between atoms: _71  and  _72
REMARK   33  A    between atoms: _72  and  _73
REMARK   34  A    between atoms: _76  and  _78
REMARK   35  A    between atoms: _78  and  _79
REMARK   36  A    between atoms: _78  and  _81
REMARK   37  A    between atoms: _81  and  _82
REMARK   38  A    between atoms: _87  and  _89
REMARK   39  A    between atoms: _89  and  _90
REMARK   40  A    between atoms: _92  and  _94
REMARK   41  A    between atoms: _94  and  _95
REMARK   42  A    between atoms: _94  and  _97
REMARK   43  A    between atoms: _97  and  _98
REMARK   44  A    between atoms: _98  and  _99
REMARK   45  A    between atoms: _99  and  _100
REMARK   46  A    between atoms: _100  and  _101
REMARK   47  A    between atoms: _105  and  _107
REMARK   48  A    between atoms: _107  and  _108
REMARK   49  A    between atoms: _107  and  _110
REMARK   50  A    between atoms: _110  and  _111
REMARK   51  A    between atoms: _111  and  _112
REMARK   52  A    between atoms: _117  and  _119
REMARK   53  A    between atoms: _119  and  _120
REMARK   54  A    between atoms: _119  and  _122
REMARK   55  A    between atoms: _122  and  _123
REMARK   56  A    between atoms: _123  and  _124
REMARK   57  A    between atoms: _127  and  _129
REMARK   58  A    between atoms: _129  and  _130
REMARK   59  A    between atoms: _129  and  _132
REMARK   60  A    between atoms: _132  and  _133
REMARK   61  A    between atoms: _133  and  _134
REMARK   62  A    between atoms: _136  and  _138
REMARK   63  A    between atoms: _138  and  _139
REMARK   64  A    between atoms: _138  and  _141
REMARK   65  A    between atoms: _141  and  _142
REMARK   66  A    between atoms: _145  and  _147
REMARK   67  A    between atoms: _147  and  _148
REMARK   68  A    between atoms: _147  and  _150
REMARK   69  A    between atoms: _150  and  _151
REMARK   70  A    between atoms: _151  and  _152
REMARK   71  A    between atoms: _155  and  _157
REMARK   72  A    between atoms: _157  and  _158
REMARK   73  A    between atoms: _157  and  _160
REMARK   74  A    between atoms: _160  and  _161
REMARK   75  A    between atoms: _161  and  _163
REMARK   76  A    between atoms: _163  and  ZN_395
REMARK   77  A    between atoms: _164  and  _166
REMARK   78  A    between atoms: _166  and  _167
REMARK   79  A    between atoms: _166  and  _169
REMARK   80  A    between atoms: _171  and  _173
REMARK   81  A    between atoms: _173  and  _174
REMARK   82  A    between atoms: _177  and  _179
REMARK   83  A    between atoms: _179  and  _180
REMARK   84  A    between atoms: _183  and  _185
REMARK   85  A    between atoms: _185  and  _186
REMARK   86  A    between atoms: _185  and  _188
REMARK   87  A    between atoms: _188  and  _189
REMARK   88  A    between atoms: _189  and  _190
REMARK   89  A    between atoms: _193  and  _195
REMARK   90  A    between atoms: _195  and  _196
REMARK   91  A    between atoms: _195  and  _198
REMARK   92  A    between atoms: _198  and  _199
REMARK   93  A    between atoms: _199  and  _200
REMARK   94  A    between atoms: _200  and  _202
REMARK   95  A    between atoms: _202  and  ZN_395
REMARK   96  A    between atoms: _203  and  _205
REMARK   97  A    between atoms: _205  and  _206
REMARK   98  A    between atoms: _205  and  _208
REMARK   99  A    between atoms: _208  and  _209
REMARK  100  A    between atoms: _212  and  _214
REMARK  101  A    between atoms: _214  and  _215
REMARK  102  A    between atoms: _214  and  _217
REMARK  103  A    between atoms: _220  and  _222
REMARK  104  A    between atoms: _222  and  _223
REMARK  105  A    between atoms: _225  and  _227
REMARK  106  A    between atoms: _227  and  _228
REMARK  107  A    between atoms: _227  and  _230
REMARK  108  A    between atoms: _230  and  _231
REMARK  109  A    between atoms: _231  and  _233
REMARK  110  A    between atoms: _233  and  ZN_395
REMARK  111  A    between atoms: _234  and  _236
REMARK  112  A    between atoms: _236  and  _237
REMARK  113  A    between atoms: _236  and  _239
REMARK  114  A    between atoms: _239  and  _240
REMARK  115  A    between atoms: _243  and  _245
REMARK  116  A    between atoms: _245  and  _246
REMARK  117  A    between atoms: _245  and  _248
REMARK  118  A    between atoms: _248  and  _249
REMARK  119  A    between atoms: _252  and  _254
REMARK  120  A    between atoms: _254  and  _255
REMARK  121  A    between atoms: _254  and  _257
REMARK  122  A    between atoms: _257  and  _258
REMARK  123  A    between atoms: _261  and  _263
REMARK  124  A    between atoms: _263  and  _264
REMARK  125  A    between atoms: _263  and  _266
REMARK  126  A    between atoms: _266  and  _267
REMARK  127  A    between atoms: _267  and  _268
REMARK  128  A    between atoms: _268  and  _269
REMARK  129  A    between atoms: _269  and  _270
REMARK  130  A    between atoms: _274  and  _276
REMARK  131  A    between atoms: _276  and  _277
REMARK  132  A    between atoms: _276  and  _279
REMARK  133  A    between atoms: _279  and  _280
REMARK  134  A    between atoms: _285  and  _287
REMARK  135  A    between atoms: _287  and  _288
REMARK  136  A    between atoms: _287  and  _290
REMARK  137  A    between atoms: _290  and  _291
REMARK  138  A    between atoms: _291  and  _292
REMARK  139  A    between atoms: _297  and  _299
REMARK  140  A    between atoms: _299  and  _300
REMARK  141  A    between atoms: _299  and  _302
REMARK  142  A    between atoms: _302  and  _303
REMARK  143  A    between atoms: _303  and  _304
REMARK  144  A    between atoms: _306  and  _308
REMARK  145  A    between atoms: _308  and  _309
REMARK  146  A    between atoms: _308  and  _311
REMARK  147  A    between atoms: _311  and  _312
REMARK  148  A    between atoms: _314  and  _316
REMARK  149  A    between atoms: _316  and  _317
REMARK  150  A    between atoms: _316  and  _319
REMARK  151  A    between atoms: _319  and  _320
REMARK  152  A    between atoms: _325  and  _327
REMARK  153  A    between atoms: _327  and  _328
REMARK  154  A    between atoms: _327  and  _330
REMARK  155  A    between atoms: _330  and  _331
REMARK  156  A    between atoms: _331  and  _332
REMARK  157  A    between atoms: _332  and  _333
REMARK  158  A    between atoms: _342  and  _344
REMARK  159  A    between atoms: _344  and  _345
REMARK  160  A    between atoms: _344  and  _347
REMARK  161  A    between atoms: _347  and  _348
REMARK  162  A    between atoms: _350  and  _352
REMARK  163  A    between atoms: _352  and  _353
REMARK  164  A    between atoms: _355  and  _357
REMARK  165  A    between atoms: _357  and  _358
REMARK  166  A    between atoms: _357  and  _360
REMARK  167  A    between atoms: _360  and  _361
REMARK  168  A    between atoms: _361  and  _362
REMARK  169  A    between atoms: _365  and  _367
REMARK  170  A    between atoms: _367  and  _368
REMARK  171  A    between atoms: _367  and  _370
REMARK  172  A    between atoms: _370  and  _371
REMARK  173  A    between atoms: _371  and  _372
REMARK  174  A    between atoms: _372  and  _373
REMARK  175  A    between atoms: _373  and  _374
REMARK  176  A    between atoms: _378  and  _380
REMARK  177  A    between atoms: _380  and  _381
REMARK  178  A    between atoms: _380  and  _383
REMARK  179  A    between atoms: _383  and  _384
REMARK  180  A    between atoms: _384  and  _385
REMARK  181  A    between atoms: _385  and  _386
REMARK                            x       y       z     vdW  Elec       q    Type
REMARK                         _______ _______ _______ _____ _____    ______ ____
ROOT
ATOM      1  C   GLN A   1      13.175  21.953  32.234  0.00  0.00    +0.238 C 
ATOM      2  O   GLN A   1      12.068  22.120  31.697  0.00  0.00    -0.274 OA
ATOM      3  N   GLU A   2      14.315  22.339  31.675  0.00  0.00    -0.298 N 
ATOM      4  H   GLU A   2      15.227  22.106  32.117  0.00  0.00    +0.150 HD
ENDROOT
BRANCH   1   5
ATOM      5  CA  GLN A   1      13.254  21.392  33.637  0.00  0.00    +0.145 C 
BRANCH   5   6
ATOM      6  N   GLN A   1      14.340  20.477  33.827  0.00  0.00    -0.238 NA
ATOM      7  H   GLN A   1      15.262  20.824  34.160  0.00  0.00    +0.142 HD
ENDBRANCH   5   6
BRANCH   5   8
ATOM      8  CB  GLN A   1      13.441  22.537  34.614  0.00  0.00    +0.036 C 
BRANCH   8   9
ATOM      9  CG  GLN A   1      12.295  23.509  34.731  0.00  0.00    +0.087 C 
BRANCH   9  10
ATOM     10  CD  GLN A   1      12.667  24.540  35.755  0.00  0.00    +0.219 C 
ATOM     11  NE2 GLN A   1      12.425  24.226  36.994  0.00  0.00    -0.329 N 
ATOM     12 HE21 GLN A   1      12.762  24.841  37.762  0.00  0.00    +0.145 HD
ATOM     13 HE22 GLN A   1      11.895  23.360  37.217  0.00  0.00    +0.145 HD
ATOM     14  OE1 GLN A   1      13.285  25.545  35.430  0.00  0.00    -0.275 OA
ENDBRANCH   9  10
ENDBRANCH   8   9
ENDBRANCH   5   8
ENDBRANCH   1   5
BRANCH   3  15
ATOM     15  CA  GLU A   2      14.262  23.113  30.401  0.00  0.00    +0.137 C 
BRANCH  15  16
ATOM     16  C   GLU A   2      15.261  22.666  29.408  0.00  0.00    +0.227 C 
ATOM     17  O   GLU A   2      16.477  22.628  29.705  0.00  0.00    -0.286 OA
ENDBRANCH  15  16
BRANCH  15  18
ATOM     18  CB  GLU A   2      14.439  24.600  30.630  0.00  0.00    +0.039 C 
BRANCH  18  19
ATOM     19  CG  GLU A   2      13.630  25.092  31.797  0.00  0.00    +0.116 C 
BRANCH  19  20
ATOM     20  CD  GLU A   2      13.808  26.580  32.067  0.00  0.00    +0.365 C 
ATOM     21  OE2 GLU A   2      13.169  26.963  33.046  0.00  0.00    -0.246 OA
ATOM     22  OE1 GLU A   2      14.551  27.336  31.341  0.00  0.00    -0.246 OA
ENDBRANCH  19  20
ENDBRANCH  18  19
ENDBRANCH  15  18
ENDBRANCH   3  15
TORSDOF 10
REMARK  Name = ../refined-set-2016/2ptz/2ptz_pocket.pdb
REMARK  181 active torsions:
REMARK  status: ('A' for Active; 'I' for Inactive)
REMARK    1  A    between atoms: _1  and  _3
REMARK    2  A    between atoms: _3  and  _4
REMARK    3  A    between atoms: _3  and  _6
REMARK    4  A    between atoms: _6  and  _7
REMARK    5  A    between atoms: _7  and  _8
REMARK    6  A    between atoms: _8  and  _9
REMARK    7  A    between atoms: _19  and  _20
REMARK    8  A    between atoms: _25  and  _27
REMARK    9  A    between atoms: _27  and  _28
REMARK   10  A    between atoms: _27  and  _30
REMARK   11  A    between atoms: _30  and  _31
REMARK   12  A    between atoms: _33  and  _35
REMARK   13  A    between atoms: _35  and  _36
REMARK   14  A    between atoms: _38  and  _40
REMARK   15  A    between atoms: _40  and  _41
REMARK   16  A    between atoms: _44  and  _46
REMARK   17  A    between atoms: _46  and  _47
REMARK   18  A    between atoms: _46  and  _49
REMARK   19  A    between atoms: _47  and  _48
REMARK   20  A    between atoms: _47  and  _52
REMARK   21  A    between atoms: _48  and  ZN_396
REMARK   22  A    between atoms: _49  and  _50
REMARK   23  A    between atoms: _52  and  _54
REMARK   24  A    between atoms: _54  and  _55
REMARK   25  A    between atoms: _54  and  _57
REMARK   26  A    between atoms: _57  and  _58
REMARK   27  A    between atoms: _61  and  _63
REMARK   28  A    between atoms: _63  and  _64
REMARK   29  A    between atoms: _66  and  _68
REMARK   30  A    between atoms: _68  and  _69
REMARK   31  A    between atoms: _68  and  _71
REMARK   32  A    between atoms: _71  and  _72
REMARK   33  A    between atoms: _72  and  _73
REMARK   34  A    between atoms: _76  and  _78
REMARK   35  A    between atoms: _78  and  _79
REMARK   36  A    between atoms: _78  and  _81
REMARK   37  A    between atoms: _81  and  _82
REMARK   38  A    between atoms: _87  and  _89
REMARK   39  A    between atoms: _89  and  _90
REMARK   40  A    between atoms: _92  and  _94
REMARK   41  A    between atoms: _94  and  _95
REMARK   42  A    between atoms: _94  and  _97
REMARK   43  A    between atoms: _97  and  _98
REMARK   44  A    between atoms: _98  and  _99
REMARK   45  A    between atoms: _99  and  _100
REMARK   46  A    between atoms: _100  and  _101
REMARK   47  A    between atoms: _105  and  _107
REMARK   48  A    between atoms: _107  and  _108
REMARK   49  A    between atoms: _107  and  _110
REMARK   50  A    between atoms: _110  and  _111
REMARK   51  A    between atoms: _111  and  _112
REMARK   52  A    between atoms: _117  and  _119
REMARK   53  A    between atoms: _119  and  _120
REMARK   54  A    between atoms: _119  and  _122
REMARK   55  A    between atoms: _122  and  _123
REMARK   56  A    between atoms: _123  and  _124
REMARK   57  A    between atoms: _127  and  _129
REMARK   58  A    between atoms: _129  and  _130
REMARK   59  A    between atoms: _129  and  _132
REMARK   60  A    between atoms: _132  and  _133
REMARK   61  A    between atoms: _133  and  _134
REMARK   62  A    between atoms: _136  and  _138
REMARK   63  A    between atoms: _138  and  _139
REMARK   64  A    between atoms: _138  and  _141
REMARK   65  A    between atoms: _141  and  _142
REMARK   66  A    between atoms: _145  and  _147
REMARK   67  A    between atoms: _147  and  _148
REMARK   68  A    between atoms: _147  and  _150
REMARK   69  A    between atoms: _150  and  _151
REMARK   70  A    between atoms: _151  and  _152
REMARK   71  A    between atoms: _155  and  _157
REMARK   72  A    between atoms: _157  and  _158
REMARK   73  A    between atoms: _157  and  _160
REMARK   74  A    between atoms: _160  and  _161
REMARK   75  A    between atoms: _161  and  _163
REMARK   76  A    between atoms: _163  and  ZN_395
REMARK   77  A    between atoms: _164  and  _166
REMARK   78  A    between atoms: _166  and  _167
REMARK   79  A    between atoms: _166  and  _169
REMARK   80  A    between atoms: _171  and  _173
REMARK   81  A    between atoms: _173  and  _174
REMARK   82  A    between atoms: _177  and  _179
REMARK   83  A    between atoms: _179  and  _180
REMARK   84  A    between atoms: _183  and  _185
REMARK   85  A    between atoms: _185  and  _186
REMARK   86  A    between atoms: _185  and  _188
REMARK   87  A    between atoms: _188  and  _189
REMARK   88  A    between atoms: _189  and  _190
REMARK   89  A    between atoms: _193  and  _195
REMARK   90  A    between atoms: _195  and  _196
REMARK   91  A    between atoms: _195  and  _198
REMARK   92  A    between atoms: _198  and  _199
REMARK   93  A    between atoms: _199  and  _200
REMARK   94  A    between atoms: _200  and  _202
REMARK   95  A    between atoms: _202  and  ZN_395
REMARK   96  A    between atoms: _203  and  _205
REMARK   97  A    between atoms: _205  and  _206
REMARK   98  A    between atoms: _205  and  _208
REMARK   99  A    between atoms: _208  and  _209
REMARK  100  A    between atoms: _212  and  _214
REMARK  101  A    between atoms: _214  and  _215
REMARK  102  A    between atoms: _214  and  _217
REMARK  103  A    between atoms: _220  and  _222
REMARK  104  A    between atoms: _222  and  _223
REMARK  105  A    between atoms: _225  and  _227
REMARK  106  A    between atoms: _227  and  _228
REMARK  107  A    between atoms: _227  and  _230
REMARK  108  A    between atoms: _230  and  _231
REMARK  109  A    between atoms: _231  and  _233
REMARK  110  A    between atoms: _233  and  ZN_395
REMARK  111  A    between atoms: _234  and  _236
REMARK  112  A    between atoms: _236  and  _237
REMARK  113  A    between atoms: _236  and  _239
REMARK  114  A    between atoms: _239  and  _240
REMARK  115  A    between atoms: _243  and  _245
REMARK  116  A    between atoms: _245  and  _246
REMARK  117  A    between atoms: _245  and  _248
REMARK  118  A    between atoms: _248  and  _249
REMARK  119  A    between atoms: _252  and  _254
REMARK  120  A    between atoms: _254  and  _255
REMARK  121  A    between atoms: _254  and  _257
REMARK  122  A    between atoms: _257  and  _258
REMARK  123  A    between atoms: _261  and  _263
REMARK  124  A    between atoms: _263  and  _264
REMARK  125  A    between atoms: _263  and  _266
REMARK  126  A    between atoms: _266  and  _267
REMARK  127  A    between atoms: _267  and  _268
REMARK  128  A    between atoms: _268  and  _269
REMARK  129  A    between atoms: _269  and  _270
REMARK  130  A    between atoms: _274  and  _276
REMARK  131  A    between atoms: _276  and  _277
REMARK  132  A    between atoms: _276  and  _279
REMARK  133  A    between atoms: _279  and  _280
REMARK  134  A    between atoms: _285  and  _287
REMARK  135  A    between atoms: _287  and  _288
REMARK  136  A    between atoms: _287  and  _290
REMARK  137  A    between atoms: _290  and  _291
REMARK  138  A    between atoms: _291  and  _292
REMARK  139  A    between atoms: _297  and  _299
REMARK  140  A    between atoms: _299  and  _300
REMARK  141  A    between atoms: _299  and  _302
REMARK  142  A    between atoms: _302  and  _303
REMARK  143  A    between atoms: _303  and  _304
REMARK  144  A    between atoms: _306  and  _308
REMARK  145  A    between atoms: _308  and  _309
REMARK  146  A    between atoms: _308  and  _311
REMARK  147  A    between atoms: _311  and  _312
REMARK  148  A    between atoms: _314  and  _316
REMARK  149  A    between atoms: _316  and  _317
REMARK  150  A    between atoms: _316  and  _319
REMARK  151  A    between atoms: _319  and  _320
REMARK  152  A    between atoms: _325  and  _327
REMARK  153  A    between atoms: _327  and  _328
REMARK  154  A    between atoms: _327  and  _330
REMARK  155  A    between atoms: _330  and  _331
REMARK  156  A    between atoms: _331  and  _332
REMARK  157  A    between atoms: _332  and  _333
REMARK  158  A    between atoms: _342  and  _344
REMARK  159  A    between atoms: _344  and  _345
REMARK  160  A    between atoms: _344  and  _347
REMARK  161  A    between atoms: _347  and  _348
REMARK  162  A    between atoms: _350  and  _352
REMARK  163  A    between atoms: _352  and  _353
REMARK  164  A    between atoms: _355  and  _357
REMARK  165  A    between atoms: _357  and  _358
REMARK  166  A    between atoms: _357  and  _360
REMARK  167  A    between atoms: _360  and  _361
REMARK  168  A    between atoms: _361  and  _362
REMARK  169  A    between atoms: _365  and  _367
REMARK  170  A    between atoms: _367  and  _368
REMARK  171  A    between atoms: _367  and  _370
REMARK  172  A    between atoms: _370  and  _371
REMARK  173  A    between atoms: _371  and  _372
REMARK  174  A    between atoms: _372  and  _373
REMARK  175  A    between atoms: _373  and  _374
REMARK  176  A    between atoms: _378  and  _380
REMARK  177  A    between atoms: _380  and  _381
REMARK  178  A    between atoms: _380  and  _383
REMARK  179  A    between atoms: _383  and  _384
REMARK  180  A    between atoms: _384  and  _385
REMARK  181  A    between atoms: _385  and  _386
REMARK                            x       y       z     vdW  Elec       q    Type
REMARK                         _______ _______ _______ _____ _____    ______ ____
ROOT
ATOM      1  CA  MET A   1      16.176  25.032  25.052  0.00  0.00    +0.134 C 
ENDROOT
BRANCH   1   2
ATOM      2  N   MET A   1      16.417  23.828  25.865  0.00  0.00    -0.239 NA
ATOM      3  H   MET A   1      17.355  23.641  26.272  0.00  0.00    +0.142 HD
ENDBRANCH   1   2
BRANCH   1   4
ATOM      4  C   MET A   1      17.003  25.066  23.802  0.00  0.00    +0.224 C 
ATOM      5  O   MET A   1      18.061  24.492  23.734  0.00  0.00    -0.287 OA
ENDBRANCH   1   4
BRANCH   1   6
ATOM      6  CB  MET A   1      16.476  26.300  25.838  0.00  0.00    +0.037 C 
BRANCH   6   7
ATOM      7  CG  MET A   1      15.969  26.331  27.263  0.00  0.00    +0.059 C 
BRANCH   7   8
ATOM      8  SD  MET A   1      16.436  27.897  28.081  0.00  0.00    -0.139 S 
ATOM      9  CE  MET A   1      17.291  27.223  29.507  0.00  0.00    +0.069 C 
ENDBRANCH   7   8
ENDBRANCH   6   7
ENDBRANCH   1   6
TORSDOF 5
REMARK  Name = ../refined-set-2016/2ptz/2ptz_pocket.pdb
REMARK  181 active torsions:
REMARK  status: ('A' for Active; 'I' for Inactive)
REMARK    1  A    between atoms: _1  and  _3
REMARK    2  A    between atoms: _3  and  _4
REMARK    3  A    between atoms: _3  and  _6
REMARK    4  A    between atoms: _6  and  _7
REMARK    5  A    between atoms: _7  and  _8
REMARK    6  A    between atoms: _8  and  _9
REMARK    7  A    between atoms: _19  and  _20
REMARK    8  A    between atoms: _25  and  _27
REMARK    9  A    between atoms: _27  and  _28
REMARK   10  A    between atoms: _27  and  _30
REMARK   11  A    between atoms: _30  and  _31
REMARK   12  A    between atoms: _33  and  _35
REMARK   13  A    between atoms: _35  and  _36
REMARK   14  A    between atoms: _38  and  _40
REMARK   15  A    between atoms: _40  and  _41
REMARK   16  A    between atoms: _44  and  _46
REMARK   17  A    between atoms: _46  and  _47
REMARK   18  A    between atoms: _46  and  _49
REMARK   19  A    between atoms: _47  and  _48
REMARK   20  A    between atoms: _47  and  _52
REMARK   21  A    between atoms: _48  and  ZN_396
REMARK   22  A    between atoms: _49  and  _50
REMARK   23  A    between atoms: _52  and  _54
REMARK   24  A    between atoms: _54  and  _55
REMARK   25  A    between atoms: _54  and  _57
REMARK   26  A    between atoms: _57  and  _58
REMARK   27  A    between atoms: _61  and  _63
REMARK   28  A    between atoms: _63  and  _64
REMARK   29  A    between atoms: _66  and  _68
REMARK   30  A    between atoms: _68  and  _69
REMARK   31  A    between atoms: _68  and  _71
REMARK   32  A    between atoms: _71  and  _72
REMARK   33  A    between atoms: _72  and  _73
REMARK   34  A    between atoms: _76  and  _78
REMARK   35  A    between atoms: _78  and  _79
REMARK   36  A    between atoms: _78  and  _81
REMARK   37  A    between atoms: _81  and  _82
REMARK   38  A    between atoms: _87  and  _89
REMARK   39  A    between atoms: _89  and  _90
REMARK   40  A    between atoms: _92  and  _94
REMARK   41  A    between atoms: _94  and  _95
REMARK   42  A    between atoms: _94  and  _97
REMARK   43  A    between atoms: _97  and  _98
REMARK   44  A    between atoms: _98  and  _99
REMARK   45  A    between atoms: _99  and  _100
REMARK   46  A    between atoms: _100  and  _101
REMARK   47  A    between atoms: _105  and  _107
REMARK   48  A    between atoms: _107  and  _108
REMARK   49  A    between atoms: _107  and  _110
REMARK   50  A    between atoms: _110  and  _111
REMARK   51  A    between atoms: _111  and  _112
REMARK   52  A    between atoms: _117  and  _119
REMARK   53  A    between atoms: _119  and  _120
REMARK   54  A    between atoms: _119  and  _122
REMARK   55  A    between atoms: _122  and  _123
REMARK   56  A    between atoms: _123  and  _124
REMARK   57  A    between atoms: _127  and  _129
REMARK   58  A    between atoms: _129  and  _130
REMARK   59  A    between atoms: _129  and  _132
REMARK   60  A    between atoms: _132  and  _133
REMARK   61  A    between atoms: _133  and  _134
REMARK   62  A    between atoms: _136  and  _138
REMARK   63  A    between atoms: _138  and  _139
REMARK   64  A    between atoms: _138  and  _141
REMARK   65  A    between atoms: _141  and  _142
REMARK   66  A    between atoms: _145  and  _147
REMARK   67  A    between atoms: _147  and  _148
REMARK   68  A    between atoms: _147  and  _150
REMARK   69  A    between atoms: _150  and  _151
REMARK   70  A    between atoms: _151  and  _152
REMARK   71  A    between atoms: _155  and  _157
REMARK   72  A    between atoms: _157  and  _158
REMARK   73  A    between atoms: _157  and  _160
REMARK   74  A    between atoms: _160  and  _161
REMARK   75  A    between atoms: _161  and  _163
REMARK   76  A    between atoms: _163  and  ZN_395
REMARK   77  A    between atoms: _164  and  _166
REMARK   78  A    between atoms: _166  and  _167
REMARK   79  A    between atoms: _166  and  _169
REMARK   80  A    between atoms: _171  and  _173
REMARK   81  A    between atoms: _173  and  _174
REMARK   82  A    between atoms: _177  and  _179
REMARK   83  A    between atoms: _179  and  _180
REMARK   84  A    between atoms: _183  and  _185
REMARK   85  A    between atoms: _185  and  _186
REMARK   86  A    between atoms: _185  and  _188
REMARK   87  A    between atoms: _188  and  _189
REMARK   88  A    between atoms: _189  and  _190
REMARK   89  A    between atoms: _193  and  _195
REMARK   90  A    between atoms: _195  and  _196
REMARK   91  A    between atoms: _195  and  _198
REMARK   92  A    between atoms: _198  and  _199
REMARK   93  A    between atoms: _199  and  _200
REMARK   94  A    between atoms: _200  and  _202
REMARK   95  A    between atoms: _202  and  ZN_395
REMARK   96  A    between atoms: _203  and  _205
REMARK   97  A    between atoms: _205  and  _206
REMARK   98  A    between atoms: _205  and  _208
REMARK   99  A    between atoms: _208  and  _209
REMARK  100  A    between atoms: _212  and  _214
REMARK  101  A    between atoms: _214  and  _215
REMARK  102  A    between atoms: _214  and  _217
REMARK  103  A    between atoms: _220  and  _222
REMARK  104  A    between atoms: _222  and  _223
REMARK  105  A    between atoms: _225  and  _227
REMARK  106  A    between atoms: _227  and  _228
REMARK  107  A    between atoms: _227  and  _230
REMARK  108  A    between atoms: _230  and  _231
REMARK  109  A    between atoms: _231  and  _233
REMARK  110  A    between atoms: _233  and  ZN_395
REMARK  111  A    between atoms: _234  and  _236
REMARK  112  A    between atoms: _236  and  _237
REMARK  113  A    between atoms: _236  and  _239
REMARK  114  A    between atoms: _239  and  _240
REMARK  115  A    between atoms: _243  and  _245
REMARK  116  A    between atoms: _245  and  _246
REMARK  117  A    between atoms: _245  and  _248
REMARK  118  A    between atoms: _248  and  _249
REMARK  119  A    between atoms: _252  and  _254
REMARK  120  A    between atoms: _254  and  _255
REMARK  121  A    between atoms: _254  and  _257
REMARK  122  A    between atoms: _257  and  _258
REMARK  123  A    between atoms: _261  and  _263
REMARK  124  A    between atoms: _263  and  _264
REMARK  125  A    between atoms: _263  and  _266
REMARK  126  A    between atoms: _266  and  _267
REMARK  127  A    between atoms: _267  and  _268
REMARK  128  A    between atoms: _268  and  _269
REMARK  129  A    between atoms: _269  and  _270
REMARK  130  A    between atoms: _274  and  _276
REMARK  131  A    between atoms: _276  and  _277
REMARK  132  A    between atoms: _276  and  _279
REMARK  133  A    between atoms: _279  and  _280
REMARK  134  A    between atoms: _285  and  _287
REMARK  135  A    between atoms: _287  and  _288
REMARK  136  A    between atoms: _287  and  _290
REMARK  137  A    between atoms: _290  and  _291
REMARK  138  A    between atoms: _291  and  _292
REMARK  139  A    between atoms: _297  and  _299
REMARK  140  A    between atoms: _299  and  _300
REMARK  141  A    between atoms: _299  and  _302
REMARK  142  A    between atoms: _302  and  _303
REMARK  143  A    between atoms: _303  and  _304
REMARK  144  A    between atoms: _306  and  _308
REMARK  145  A    between atoms: _308  and  _309
REMARK  146  A    between atoms: _308  and  _311
REMARK  147  A    between atoms: _311  and  _312
REMARK  148  A    between atoms: _314  and  _316
REMARK  149  A    between atoms: _316  and  _317
REMARK  150  A    between atoms: _316  and  _319
REMARK  151  A    between atoms: _319  and  _320
REMARK  152  A    between atoms: _325  and  _327
REMARK  153  A    between atoms: _327  and  _328
REMARK  154  A    between atoms: _327  and  _330
REMARK  155  A    between atoms: _330  and  _331
REMARK  156  A    between atoms: _331  and  _332
REMARK  157  A    between atoms: _332  and  _333
REMARK  158  A    between atoms: _342  and  _344
REMARK  159  A    between atoms: _344  and  _345
REMARK  160  A    between atoms: _344  and  _347
REMARK  161  A    between atoms: _347  and  _348
REMARK  162  A    between atoms: _350  and  _352
REMARK  163  A    between atoms: _352  and  _353
REMARK  164  A    between atoms: _355  and  _357
REMARK  165  A    between atoms: _357  and  _358
REMARK  166  A    between atoms: _357  and  _360
REMARK  167  A    between atoms: _360  and  _361
REMARK  168  A    between atoms: _361  and  _362
REMARK  169  A    between atoms: _365  and  _367
REMARK  170  A    between atoms: _367  and  _368
REMARK  171  A    between atoms: _367  and  _370
REMARK  172  A    between atoms: _370  and  _371
REMARK  173  A    between atoms: _371  and  _372
REMARK  174  A    between atoms: _372  and  _373
REMARK  175  A    between atoms: _373  and  _374
REMARK  176  A    between atoms: _378  and  _380
REMARK  177  A    between atoms: _380  and  _381
REMARK  178  A    between atoms: _380  and  _383
REMARK  179  A    between atoms: _383  and  _384
REMARK  180  A    between atoms: _384  and  _385
REMARK  181  A    between atoms: _385  and  _386
REMARK                            x       y       z     vdW  Elec       q    Type
REMARK                         _______ _______ _______ _____ _____    ______ ____
ROOT
ATOM      1  C   ASP A   1       4.596  27.237  30.649  0.00  0.00    +0.239 C 
ATOM      2  O   ASP A   1       4.081  28.364  30.557  0.00  0.00    -0.274 OA
ATOM      3  N   GLU A   2       5.777  26.927  30.085  0.00  0.00    -0.298 N 
ATOM      4  H   GLU A   2       6.155  25.964  30.190  0.00  0.00    +0.150 HD
ENDROOT
BRANCH   1   5
ATOM      5  CA  ASP A   1       3.912  26.135  31.482  0.00  0.00    +0.156 C 
BRANCH   5   6
ATOM      6  N   ASP A   1       4.188  24.795  30.971  0.00  0.00    -0.238 NA
ATOM      7  H   ASP A   1       4.651  24.095  31.585  0.00  0.00    +0.142 HD
ENDBRANCH   5   6
BRANCH   5   8
ATOM      8  CB  ASP A   1       4.366  26.256  32.916  0.00  0.00    +0.140 C 
BRANCH   8   9
ATOM      9  CG  ASP A   1       3.536  25.487  33.868  0.00  0.00    +0.367 C 
ATOM     10  OD2 ASP A   1       4.087  25.266  35.002  0.00  0.00    -0.246 OA
ATOM     11  OD1 ASP A   1       2.379  25.079  33.537  0.00  0.00    -0.246 OA
ENDBRANCH   8   9
ENDBRANCH   5   8
ENDBRANCH   1   5
BRANCH   3  12
ATOM     12  CA  GLU A   2       6.532  27.910  29.334  0.00  0.00    +0.137 C 
BRANCH  12  13
ATOM     13  C   GLU A   2       6.386  27.768  27.813  0.00  0.00    +0.227 C 
ATOM     14  O   GLU A   2       7.170  28.362  27.041  0.00  0.00    -0.286 OA
ENDBRANCH  12  13
BRANCH  12  15
ATOM     15  CB  GLU A   2       7.989  27.848  29.766  0.00  0.00    +0.039 C 
BRANCH  15  16
ATOM     16  CG  GLU A   2       8.144  28.260  31.226  0.00  0.00    +0.116 C 
BRANCH  16  17
ATOM     17  CD  GLU A   2       9.593  28.501  31.590  0.00  0.00    +0.365 C 
ATOM     18  OE2 GLU A   2       9.889  28.810  32.771  0.00  0.00    -0.246 OA
ATOM     19  OE1 GLU A   2      10.432  28.308  30.712  0.00  0.00    -0.246 OA
ENDBRANCH  16  17
ENDBRANCH  15  16
ENDBRANCH  12  15
ENDBRANCH   3  12
TORSDOF 9
REMARK  Name = ../refined-set-2016/2ptz/2ptz_pocket.pdb
REMARK  181 active torsions:
REMARK  status: ('A' for Active; 'I' for Inactive)
REMARK    1  A    between atoms: _1  and  _3
REMARK    2  A    between atoms: _3  and  _4
REMARK    3  A    between atoms: _3  and  _6
REMARK    4  A    between atoms: _6  and  _7
REMARK    5  A    between atoms: _7  and  _8
REMARK    6  A    between atoms: _8  and  _9
REMARK    7  A    between atoms: _19  and  _20
REMARK    8  A    between atoms: _25  and  _27
REMARK    9  A    between atoms: _27  and  _28
REMARK   10  A    between atoms: _27  and  _30
REMARK   11  A    between atoms: _30  and  _31
REMARK   12  A    between atoms: _33  and  _35
REMARK   13  A    between atoms: _35  and  _36
REMARK   14  A    between atoms: _38  and  _40
REMARK   15  A    between atoms: _40  and  _41
REMARK   16  A    between atoms: _44  and  _46
REMARK   17  A    between atoms: _46  and  _47
REMARK   18  A    between atoms: _46  and  _49
REMARK   19  A    between atoms: _47  and  _48
REMARK   20  A    between atoms: _47  and  _52
REMARK   21  A    between atoms: _48  and  ZN_396
REMARK   22  A    between atoms: _49  and  _50
REMARK   23  A    between atoms: _52  and  _54
REMARK   24  A    between atoms: _54  and  _55
REMARK   25  A    between atoms: _54  and  _57
REMARK   26  A    between atoms: _57  and  _58
REMARK   27  A    between atoms: _61  and  _63
REMARK   28  A    between atoms: _63  and  _64
REMARK   29  A    between atoms: _66  and  _68
REMARK   30  A    between atoms: _68  and  _69
REMARK   31  A    between atoms: _68  and  _71
REMARK   32  A    between atoms: _71  and  _72
REMARK   33  A    between atoms: _72  and  _73
REMARK   34  A    between atoms: _76  and  _78
REMARK   35  A    between atoms: _78  and  _79
REMARK   36  A    between atoms: _78  and  _81
REMARK   37  A    between atoms: _81  and  _82
REMARK   38  A    between atoms: _87  and  _89
REMARK   39  A    between atoms: _89  and  _90
REMARK   40  A    between atoms: _92  and  _94
REMARK   41  A    between atoms: _94  and  _95
REMARK   42  A    between atoms: _94  and  _97
REMARK   43  A    between atoms: _97  and  _98
REMARK   44  A    between atoms: _98  and  _99
REMARK   45  A    between atoms: _99  and  _100
REMARK   46  A    between atoms: _100  and  _101
REMARK   47  A    between atoms: _105  and  _107
REMARK   48  A    between atoms: _107  and  _108
REMARK   49  A    between atoms: _107  and  _110
REMARK   50  A    between atoms: _110  and  _111
REMARK   51  A    between atoms: _111  and  _112
REMARK   52  A    between atoms: _117  and  _119
REMARK   53  A    between atoms: _119  and  _120
REMARK   54  A    between atoms: _119  and  _122
REMARK   55  A    between atoms: _122  and  _123
REMARK   56  A    between atoms: _123  and  _124
REMARK   57  A    between atoms: _127  and  _129
REMARK   58  A    between atoms: _129  and  _130
REMARK   59  A    between atoms: _129  and  _132
REMARK   60  A    between atoms: _132  and  _133
REMARK   61  A    between atoms: _133  and  _134
REMARK   62  A    between atoms: _136  and  _138
REMARK   63  A    between atoms: _138  and  _139
REMARK   64  A    between atoms: _138  and  _141
REMARK   65  A    between atoms: _141  and  _142
REMARK   66  A    between atoms: _145  and  _147
REMARK   67  A    between atoms: _147  and  _148
REMARK   68  A    between atoms: _147  and  _150
REMARK   69  A    between atoms: _150  and  _151
REMARK   70  A    between atoms: _151  and  _152
REMARK   71  A    between atoms: _155  and  _157
REMARK   72  A    between atoms: _157  and  _158
REMARK   73  A    between atoms: _157  and  _160
REMARK   74  A    between atoms: _160  and  _161
REMARK   75  A    between atoms: _161  and  _163
REMARK   76  A    between atoms: _163  and  ZN_395
REMARK   77  A    between atoms: _164  and  _166
REMARK   78  A    between atoms: _166  and  _167
REMARK   79  A    between atoms: _166  and  _169
REMARK   80  A    between atoms: _171  and  _173
REMARK   81  A    between atoms: _173  and  _174
REMARK   82  A    between atoms: _177  and  _179
REMARK   83  A    between atoms: _179  and  _180
REMARK   84  A    between atoms: _183  and  _185
REMARK   85  A    between atoms: _185  and  _186
REMARK   86  A    between atoms: _185  and  _188
REMARK   87  A    between atoms: _188  and  _189
REMARK   88  A    between atoms: _189  and  _190
REMARK   89  A    between atoms: _193  and  _195
REMARK   90  A    between atoms: _195  and  _196
REMARK   91  A    between atoms: _195  and  _198
REMARK   92  A    between atoms: _198  and  _199
REMARK   93  A    between atoms: _199  and  _200
REMARK   94  A    between atoms: _200  and  _202
REMARK   95  A    between atoms: _202  and  ZN_395
REMARK   96  A    between atoms: _203  and  _205
REMARK   97  A    between atoms: _205  and  _206
REMARK   98  A    between atoms: _205  and  _208
REMARK   99  A    between atoms: _208  and  _209
REMARK  100  A    between atoms: _212  and  _214
REMARK  101  A    between atoms: _214  and  _215
REMARK  102  A    between atoms: _214  and  _217
REMARK  103  A    between atoms: _220  and  _222
REMARK  104  A    between atoms: _222  and  _223
REMARK  105  A    between atoms: _225  and  _227
REMARK  106  A    between atoms: _227  and  _228
REMARK  107  A    between atoms: _227  and  _230
REMARK  108  A    between atoms: _230  and  _231
REMARK  109  A    between atoms: _231  and  _233
REMARK  110  A    between atoms: _233  and  ZN_395
REMARK  111  A    between atoms: _234  and  _236
REMARK  112  A    between atoms: _236  and  _237
REMARK  113  A    between atoms: _236  and  _239
REMARK  114  A    between atoms: _239  and  _240
REMARK  115  A    between atoms: _243  and  _245
REMARK  116  A    between atoms: _245  and  _246
REMARK  117  A    between atoms: _245  and  _248
REMARK  118  A    between atoms: _248  and  _249
REMARK  119  A    between atoms: _252  and  _254
REMARK  120  A    between atoms: _254  and  _255
REMARK  121  A    between atoms: _254  and  _257
REMARK  122  A    between atoms: _257  and  _258
REMARK  123  A    between atoms: _261  and  _263
REMARK  124  A    between atoms: _263  and  _264
REMARK  125  A    between atoms: _263  and  _266
REMARK  126  A    between atoms: _266  and  _267
REMARK  127  A    between atoms: _267  and  _268
REMARK  128  A    between atoms: _268  and  _269
REMARK  129  A    between atoms: _269  and  _270
REMARK  130  A    between atoms: _274  and  _276
REMARK  131  A    between atoms: _276  and  _277
REMARK  132  A    between atoms: _276  and  _279
REMARK  133  A    between atoms: _279  and  _280
REMARK  134  A    between atoms: _285  and  _287
REMARK  135  A    between atoms: _287  and  _288
REMARK  136  A    between atoms: _287  and  _290
REMARK  137  A    between atoms: _290  and  _291
REMARK  138  A    between atoms: _291  and  _292
REMARK  139  A    between atoms: _297  and  _299
REMARK  140  A    between atoms: _299  and  _300
REMARK  141  A    between atoms: _299  and  _302
REMARK  142  A    between atoms: _302  and  _303
REMARK  143  A    between atoms: _303  and  _304
REMARK  144  A    between atoms: _306  and  _308
REMARK  145  A    between atoms: _308  and  _309
REMARK  146  A    between atoms: _308  and  _311
REMARK  147  A    between atoms: _311  and  _312
REMARK  148  A    between atoms: _314  and  _316
REMARK  149  A    between atoms: _316  and  _317
REMARK  150  A    between atoms: _316  and  _319
REMARK  151  A    between atoms: _319  and  _320
REMARK  152  A    between atoms: _325  and  _327
REMARK  153  A    between atoms: _327  and  _328
REMARK  154  A    between atoms: _327  and  _330
REMARK  155  A    between atoms: _330  and  _331
REMARK  156  A    between atoms: _331  and  _332
REMARK  157  A    between atoms: _332  and  _333
REMARK  158  A    between atoms: _342  and  _344
REMARK  159  A    between atoms: _344  and  _345
REMARK  160  A    between atoms: _344  and  _347
REMARK  161  A    between atoms: _347  and  _348
REMARK  162  A    between atoms: _350  and  _352
REMARK  163  A    between atoms: _352  and  _353
REMARK  164  A    between atoms: _355  and  _357
REMARK  165  A    between atoms: _357  and  _358
REMARK  166  A    between atoms: _357  and  _360
REMARK  167  A    between atoms: _360  and  _361
REMARK  168  A    between atoms: _361  and  _362
REMARK  169  A    between atoms: _365  and  _367
REMARK  170  A    between atoms: _367  and  _368
REMARK  171  A    between atoms: _367  and  _370
REMARK  172  A    between atoms: _370  and  _371
REMARK  173  A    between atoms: _371  and  _372
REMARK  174  A    between atoms: _372  and  _373
REMARK  175  A    between atoms: _373  and  _374
REMARK  176  A    between atoms: _378  and  _380
REMARK  177  A    between atoms: _380  and  _381
REMARK  178  A    between atoms: _380  and  _383
REMARK  179  A    between atoms: _383  and  _384
REMARK  180  A    between atoms: _384  and  _385
REMARK  181  A    between atoms: _385  and  _386
REMARK                            x       y       z     vdW  Elec       q    Type
REMARK                         _______ _______ _______ _____ _____    ______ ____
ROOT
ATOM      1 ZN   UNK A   3      16.129  28.207  36.341  0.00  0.00    +0.000 Zn
ATOM      2  O   UNK A   3      16.894  26.482  37.561  0.00  0.00    +0.000 OA
ENDROOT
BRANCH   1   3
ATOM      3  O   UNK A   3      17.891  28.765  35.591  0.00  0.00    +0.000 OA
BRANCH   3   4
ATOM      4  C   UNK A   3      18.616  28.572  34.614  0.00  0.00    +0.000 C 
ATOM      5  O   UNK A   3      18.307  28.823  33.410  0.00  0.00    +0.000 OA
BRANCH   4   6
ATOM      6  C   UNK A   3      20.020  28.084  34.958  0.00  0.00    +0.000 C 
BRANCH   6   7
ATOM      7  C   UNK A   3      20.571  27.307  33.806  0.00  0.00    +0.000 C 
BRANCH   7   8
ATOM      8  C   UNK A   3      21.799  26.499  34.189  0.00  0.00    +0.000 C 
BRANCH   8   9
ATOM      9  C   UNK A   3      21.456  25.538  35.334  0.00  0.00    +0.000 C 
ATOM     10  N   ASP A   2      21.823  25.919  36.559  0.00  0.00    +0.000 N 
ATOM     11  H   ASP A   2      22.344  26.813  36.662  0.00  0.00    +0.000 HD
ATOM     12  O   UNK A   3      20.820  24.507  35.098  0.00  0.00    +0.000 OA
BRANCH  10  13
ATOM     13  CA  ASP A   2      21.529  25.140  37.772  0.00  0.00    +0.000 C 
BRANCH  13  14
ATOM     14  C   ASP A   2      21.756  23.643  37.590  0.00  0.00    +0.000 C 
ATOM     15  O   ASP A   2      20.855  22.809  37.815  0.00  0.00    +0.000 OA
ENDBRANCH  13  14
BRANCH  13  16
ATOM     16  CB  ASP A   2      20.105  25.405  38.248  0.00  0.00    +0.000 C 
BRANCH  16  17
ATOM     17  CG  ASP A   2      19.983  26.707  38.981  0.00  0.00    +0.000 C 
ATOM     18  OD2 ASP A   2      21.019  27.304  39.378  0.00  0.00    +0.000 OA
ATOM     19  OD1 ASP A   2      18.836  27.104  39.159  0.00  0.00    +0.000 OA
ENDBRANCH  16  17
ENDBRANCH  13  16
ENDBRANCH  10  13
ENDBRANCH   8   9
BRANCH   8  20
ATOM     20  N   UNK A   3      22.227  25.778  33.029  0.00  0.00    +0.000 NA
ATOM     21  H   UNK A   1      21.515  25.321  32.424  0.00  0.00    +0.000 HD
ENDBRANCH   8  20
ENDBRANCH   7   8
ENDBRANCH   6   7
ENDBRANCH   4   6
ENDBRANCH   3   4
ENDBRANCH   1   3
BRANCH   1  22
ATOM     22  O   UNK A   3      15.900  26.869  34.800  0.00  0.00    +0.000 OA
BRANCH  22  23
ATOM     23  C   UNK A   1      16.767  26.011  34.517  0.00  0.00    +0.000 C 
ATOM     24  O   UNK A   1      17.551  25.488  35.363  0.00  0.00    +0.000 OA
BRANCH  23  25
ATOM     25  C   UNK A   1      16.950  25.657  33.022  0.00  0.00    +0.000 C 
BRANCH  25  26
ATOM     26  C   UNK A   1      18.038  24.600  32.819  0.00  0.00    +0.000 C 
BRANCH  26  27
ATOM     27  C   UNK A   1      17.665  23.301  33.517  0.00  0.00    +0.000 C 
ATOM     28  N   ASP A   2      18.608  22.753  34.244  0.00  0.00    +0.000 N 
ATOM     29  H   ASP A   2      19.533  23.221  34.321  0.00  0.00    +0.000 HD
ATOM     30  O   UNK A   1      16.558  22.794  33.360  0.00  0.00    +0.000 OA
BRANCH  28  31
ATOM     31  CA  ASP A   2      18.377  21.487  34.952  0.00  0.00    +0.000 C 
BRANCH  31  32
ATOM     32  C   ASP A   2      17.432  21.693  36.135  0.00  0.00    +0.000 C 
ATOM     33  N   UNK A   3      17.474  22.897  36.706  0.00  0.00    +0.000 N 
ATOM     34  H   UNK A   3      17.981  23.666  36.223  0.00  0.00    +0.000 HD
ATOM     35  O   ASP A   2      16.700  20.765  36.535  0.00  0.00    +0.000 OA
BRANCH  33  36
ATOM     36  C   UNK A   3      16.831  23.169  37.986  0.00  0.00    +0.000 C 
ATOM     37  C   UNK A   3      15.347  23.423  37.809  0.00  0.00    +0.000 C 
BRANCH  36  38
ATOM     38  C   UNK A   3      17.089  22.024  38.993  0.00  0.00    +0.000 C 
ATOM     39  O   UNK A   3      16.142  21.482  39.615  0.00  0.00    +0.000 OA
ATOM     40  N   ASP A   4      18.358  21.660  39.149  0.00  0.00    +0.000 N 
ATOM     41  H   ASP A   4      19.115  22.294  38.823  0.00  0.00    +0.000 HD
BRANCH  40  42
ATOM     42  CA  ASP A   4      18.707  20.391  39.767  0.00  0.00    +0.000 C 
ATOM     43  CB  ASP A   4      20.210  20.146  39.650  0.00  0.00    +0.000 C 
BRANCH  42  44
ATOM     44  C   ASP A   4      18.241  20.343  41.236  0.00  0.00    +0.000 C 
ATOM     45  O   ASP A   4      18.046  19.252  41.800  0.00  0.00    +0.000 OA
ENDBRANCH  42  44
ENDBRANCH  40  42
ENDBRANCH  36  38
ENDBRANCH  33  36
ENDBRANCH  31  32
BRANCH  31  46
ATOM     46  CB  ASP A   2      19.717  20.909  35.411  0.00  0.00    +0.000 C 
ATOM     47  SG  ASP A   2      20.799  20.601  34.004  0.00  0.00    +0.000 S 
ENDBRANCH  31  46
ENDBRANCH  28  31
ENDBRANCH  26  27
BRANCH  26  48
ATOM     48  N   UNK A   1      18.273  24.211  31.427  0.00  0.00    +0.000 NA
ATOM     49  H   UNK A   1      17.516  23.746  30.885  0.00  0.00    +0.000 HD
ENDBRANCH  26  48
ENDBRANCH  25  26
ENDBRANCH  23  25
ENDBRANCH  22  23
ENDBRANCH   1  22
BRANCH   1  50
ATOM     50  O   UNK A   3      16.506  29.399  37.989  0.00  0.00    +0.000 OA
BRANCH  50  51
ATOM     51  C   UNK A   3      17.357  30.279  38.259  0.00  0.00    +0.000 C 
ATOM     52  O   UNK A   3      17.041  31.362  38.784  0.00  0.00    +0.000 OA
BRANCH  51  53
ATOM     53  C   UNK A   3      18.824  30.019  37.947  0.00  0.00    +0.000 C 
BRANCH  53  54
ATOM     54  C   UNK A   3      19.768  30.755  38.917  0.00  0.00    +0.000 C 
BRANCH  54  55
ATOM     55  N   UNK A   3      21.122  30.216  38.851  0.00  0.00    +0.000 N 
ATOM     56  H   UNK A   3      21.332  29.259  39.199  0.00  0.00    +0.000 HD
ATOM     57  C   ASP A   2      22.074  30.975  38.338  0.00  0.00    +0.000 C 
ATOM     58  O   ASP A   2      21.827  32.046  37.752  0.00  0.00    +0.000 OA
BRANCH  57  59
ATOM     59  CA  ASP A   2      23.495  30.438  38.453  0.00  0.00    +0.000 C 
BRANCH  59  60
ATOM     60  N   ASP A   2      24.093  30.459  37.115  0.00  0.00    +0.000 N 
ATOM     61  H   ASP A   2      24.729  31.243  36.866  0.00  0.00    +0.000 HD
ATOM     62  C   UNK A   1      23.857  29.520  36.209  0.00  0.00    +0.000 C 
ATOM     63  O   UNK A   1      23.254  28.476  36.446  0.00  0.00    +0.000 OA
BRANCH  62  64
ATOM     64  C   UNK A   1      24.392  29.813  34.808  0.00  0.00    +0.000 C 
BRANCH  64  65
ATOM     65  C   UNK A   1      23.185  29.959  33.866  0.00  0.00    +0.000 C 
ATOM     66  C   UNK A   1      22.408  31.257  34.167  0.00  0.00    +0.000 C 
ATOM     67  C   UNK A   1      23.589  29.887  32.396  0.00  0.00    +0.000 C 
ENDBRANCH  64  65
BRANCH  64  68
ATOM     68  N   UNK A   1      25.282  28.740  34.387  0.00  0.00    +0.000 NA
ATOM     69  H   UNK A   1      24.878  27.840  34.058  0.00  0.00    +0.000 HD
ENDBRANCH  64  68
ENDBRANCH  62  64
ENDBRANCH  59  60
ENDBRANCH  57  59
ENDBRANCH  54  55
BRANCH  54  70
ATOM     70  C   UNK A   3      19.355  30.647  40.360  0.00  0.00    +0.000 C 
ATOM     71  O   UNK A   3      19.433  31.638  41.084  0.00  0.00    +0.000 OA
ATOM     72  N   ASP A   4      18.970  29.442  40.792  0.00  0.00    +0.000 N 
ATOM     73  H   ASP A   4      18.820  28.665  40.117  0.00  0.00    +0.000 HD
BRANCH  72  74
ATOM     74  CA  ASP A   4      18.759  29.225  42.239  0.00  0.00    +0.000 C 
BRANCH  74  75
ATOM     75  C   ASP A   4      20.033  29.436  43.065  0.00  0.00    +0.000 C 
ATOM     76  O   ASP A   4      19.957  29.770  44.256  0.00  0.00    +0.000 OA
ENDBRANCH  74  75
BRANCH  74  77
ATOM     77  CB  ASP A   4      18.175  27.846  42.517  0.00  0.00    +0.000 C 
BRANCH  77  78
ATOM     78  CG  ASP A   4      16.751  27.710  41.928  0.00  0.00    +0.000 C 
ATOM     79  OD2 ASP A   4      15.999  28.718  41.820  0.00  0.00    +0.000 OA
ATOM     80  OD1 ASP A   4      16.422  26.578  41.517  0.00  0.00    +0.000 OA
ENDBRANCH  77  78
ENDBRANCH  74  77
ENDBRANCH  72  74
ENDBRANCH  54  70
ENDBRANCH  53  54
ENDBRANCH  51  53
ENDBRANCH  50  51
ENDBRANCH   1  50
TORSDOF 39
REMARK  Name = ../refined-set-2016/2ptz/2ptz_pocket.pdb
REMARK  181 active torsions:
REMARK  status: ('A' for Active; 'I' for Inactive)
REMARK    1  A    between atoms: _1  and  _3
REMARK    2  A    between atoms: _3  and  _4
REMARK    3  A    between atoms: _3  and  _6
REMARK    4  A    between atoms: _6  and  _7
REMARK    5  A    between atoms: _7  and  _8
REMARK    6  A    between atoms: _8  and  _9
REMARK    7  A    between atoms: _19  and  _20
REMARK    8  A    between atoms: _25  and  _27
REMARK    9  A    between atoms: _27  and  _28
REMARK   10  A    between atoms: _27  and  _30
REMARK   11  A    between atoms: _30  and  _31
REMARK   12  A    between atoms: _33  and  _35
REMARK   13  A    between atoms: _35  and  _36
REMARK   14  A    between atoms: _38  and  _40
REMARK   15  A    between atoms: _40  and  _41
REMARK   16  A    between atoms: _44  and  _46
REMARK   17  A    between atoms: _46  and  _47
REMARK   18  A    between atoms: _46  and  _49
REMARK   19  A    between atoms: _47  and  _48
REMARK   20  A    between atoms: _47  and  _52
REMARK   21  A    between atoms: _48  and  ZN_396
REMARK   22  A    between atoms: _49  and  _50
REMARK   23  A    between atoms: _52  and  _54
REMARK   24  A    between atoms: _54  and  _55
REMARK   25  A    between atoms: _54  and  _57
REMARK   26  A    between atoms: _57  and  _58
REMARK   27  A    between atoms: _61  and  _63
REMARK   28  A    between atoms: _63  and  _64
REMARK   29  A    between atoms: _66  and  _68
REMARK   30  A    between atoms: _68  and  _69
REMARK   31  A    between atoms: _68  and  _71
REMARK   32  A    between atoms: _71  and  _72
REMARK   33  A    between atoms: _72  and  _73
REMARK   34  A    between atoms: _76  and  _78
REMARK   35  A    between atoms: _78  and  _79
REMARK   36  A    between atoms: _78  and  _81
REMARK   37  A    between atoms: _81  and  _82
REMARK   38  A    between atoms: _87  and  _89
REMARK   39  A    between atoms: _89  and  _90
REMARK   40  A    between atoms: _92  and  _94
REMARK   41  A    between atoms: _94  and  _95
REMARK   42  A    between atoms: _94  and  _97
REMARK   43  A    between atoms: _97  and  _98
REMARK   44  A    between atoms: _98  and  _99
REMARK   45  A    between atoms: _99  and  _100
REMARK   46  A    between atoms: _100  and  _101
REMARK   47  A    between atoms: _105  and  _107
REMARK   48  A    between atoms: _107  and  _108
REMARK   49  A    between atoms: _107  and  _110
REMARK   50  A    between atoms: _110  and  _111
REMARK   51  A    between atoms: _111  and  _112
REMARK   52  A    between atoms: _117  and  _119
REMARK   53  A    between atoms: _119  and  _120
REMARK   54  A    between atoms: _119  and  _122
REMARK   55  A    between atoms: _122  and  _123
REMARK   56  A    between atoms: _123  and  _124
REMARK   57  A    between atoms: _127  and  _129
REMARK   58  A    between atoms: _129  and  _130
REMARK   59  A    between atoms: _129  and  _132
REMARK   60  A    between atoms: _132  and  _133
REMARK   61  A    between atoms: _133  and  _134
REMARK   62  A    between atoms: _136  and  _138
REMARK   63  A    between atoms: _138  and  _139
REMARK   64  A    between atoms: _138  and  _141
REMARK   65  A    between atoms: _141  and  _142
REMARK   66  A    between atoms: _145  and  _147
REMARK   67  A    between atoms: _147  and  _148
REMARK   68  A    between atoms: _147  and  _150
REMARK   69  A    between atoms: _150  and  _151
REMARK   70  A    between atoms: _151  and  _152
REMARK   71  A    between atoms: _155  and  _157
REMARK   72  A    between atoms: _157  and  _158
REMARK   73  A    between atoms: _157  and  _160
REMARK   74  A    between atoms: _160  and  _161
REMARK   75  A    between atoms: _161  and  _163
REMARK   76  A    between atoms: _163  and  ZN_395
REMARK   77  A    between atoms: _164  and  _166
REMARK   78  A    between atoms: _166  and  _167
REMARK   79  A    between atoms: _166  and  _169
REMARK   80  A    between atoms: _171  and  _173
REMARK   81  A    between atoms: _173  and  _174
REMARK   82  A    between atoms: _177  and  _179
REMARK   83  A    between atoms: _179  and  _180
REMARK   84  A    between atoms: _183  and  _185
REMARK   85  A    between atoms: _185  and  _186
REMARK   86  A    between atoms: _185  and  _188
REMARK   87  A    between atoms: _188  and  _189
REMARK   88  A    between atoms: _189  and  _190
REMARK   89  A    between atoms: _193  and  _195
REMARK   90  A    between atoms: _195  and  _196
REMARK   91  A    between atoms: _195  and  _198
REMARK   92  A    between atoms: _198  and  _199
REMARK   93  A    between atoms: _199  and  _200
REMARK   94  A    between atoms: _200  and  _202
REMARK   95  A    between atoms: _202  and  ZN_395
REMARK   96  A    between atoms: _203  and  _205
REMARK   97  A    between atoms: _205  and  _206
REMARK   98  A    between atoms: _205  and  _208
REMARK   99  A    between atoms: _208  and  _209
REMARK  100  A    between atoms: _212  and  _214
REMARK  101  A    between atoms: _214  and  _215
REMARK  102  A    between atoms: _214  and  _217
REMARK  103  A    between atoms: _220  and  _222
REMARK  104  A    between atoms: _222  and  _223
REMARK  105  A    between atoms: _225  and  _227
REMARK  106  A    between atoms: _227  and  _228
REMARK  107  A    between atoms: _227  and  _230
REMARK  108  A    between atoms: _230  and  _231
REMARK  109  A    between atoms: _231  and  _233
REMARK  110  A    between atoms: _233  and  ZN_395
REMARK  111  A    between atoms: _234  and  _236
REMARK  112  A    between atoms: _236  and  _237
REMARK  113  A    between atoms: _236  and  _239
REMARK  114  A    between atoms: _239  and  _240
REMARK  115  A    between atoms: _243  and  _245
REMARK  116  A    between atoms: _245  and  _246
REMARK  117  A    between atoms: _245  and  _248
REMARK  118  A    between atoms: _248  and  _249
REMARK  119  A    between atoms: _252  and  _254
REMARK  120  A    between atoms: _254  and  _255
REMARK  121  A    between atoms: _254  and  _257
REMARK  122  A    between atoms: _257  and  _258
REMARK  123  A    between atoms: _261  and  _263
REMARK  124  A    between atoms: _263  and  _264
REMARK  125  A    between atoms: _263  and  _266
REMARK  126  A    between atoms: _266  and  _267
REMARK  127  A    between atoms: _267  and  _268
REMARK  128  A    between atoms: _268  and  _269
REMARK  129  A    between atoms: _269  and  _270
REMARK  130  A    between atoms: _274  and  _276
REMARK  131  A    between atoms: _276  and  _277
REMARK  132  A    between atoms: _276  and  _279
REMARK  133  A    between atoms: _279  and  _280
REMARK  134  A    between atoms: _285  and  _287
REMARK  135  A    between atoms: _287  and  _288
REMARK  136  A    between atoms: _287  and  _290
REMARK  137  A    between atoms: _290  and  _291
REMARK  138  A    between atoms: _291  and  _292
REMARK  139  A    between atoms: _297  and  _299
REMARK  140  A    between atoms: _299  and  _300
REMARK  141  A    between atoms: _299  and  _302
REMARK  142  A    between atoms: _302  and  _303
REMARK  143  A    between atoms: _303  and  _304
REMARK  144  A    between atoms: _306  and  _308
REMARK  145  A    between atoms: _308  and  _309
REMARK  146  A    between atoms: _308  and  _311
REMARK  147  A    between atoms: _311  and  _312
REMARK  148  A    between atoms: _314  and  _316
REMARK  149  A    between atoms: _316  and  _317
REMARK  150  A    between atoms: _316  and  _319
REMARK  151  A    between atoms: _319  and  _320
REMARK  152  A    between atoms: _325  and  _327
REMARK  153  A    between atoms: _327  and  _328
REMARK  154  A    between atoms: _327  and  _330
REMARK  155  A    between atoms: _330  and  _331
REMARK  156  A    between atoms: _331  and  _332
REMARK  157  A    between atoms: _332  and  _333
REMARK  158  A    between atoms: _342  and  _344
REMARK  159  A    between atoms: _344  and  _345
REMARK  160  A    between atoms: _344  and  _347
REMARK  161  A    between atoms: _347  and  _348
REMARK  162  A    between atoms: _350  and  _352
REMARK  163  A    between atoms: _352  and  _353
REMARK  164  A    between atoms: _355  and  _357
REMARK  165  A    between atoms: _357  and  _358
REMARK  166  A    between atoms: _357  and  _360
REMARK  167  A    between atoms: _360  and  _361
REMARK  168  A    between atoms: _361  and  _362
REMARK  169  A    between atoms: _365  and  _367
REMARK  170  A    between atoms: _367  and  _368
REMARK  171  A    between atoms: _367  and  _370
REMARK  172  A    between atoms: _370  and  _371
REMARK  173  A    between atoms: _371  and  _372
REMARK  174  A    between atoms: _372  and  _373
REMARK  175  A    between atoms: _373  and  _374
REMARK  176  A    between atoms: _378  and  _380
REMARK  177  A    between atoms: _380  and  _381
REMARK  178  A    between atoms: _380  and  _383
REMARK  179  A    between atoms: _383  and  _384
REMARK  180  A    between atoms: _384  and  _385
REMARK  181  A    between atoms: _385  and  _386
REMARK                            x       y       z     vdW  Elec       q    Type
REMARK                         _______ _______ _______ _____ _____    ______ ____
ROOT
ATOM      1  CA  GLU A   1      14.044  20.306  42.438  0.00  0.00    +0.134 C 
ENDROOT
BRANCH   1   2
ATOM      2  N   GLU A   1      15.382  20.926  42.369  0.00  0.00    -0.239 NA
ATOM      3  H   GLU A   1      15.666  21.439  41.510  0.00  0.00    +0.142 HD
ENDBRANCH   1   2
BRANCH   1   4
ATOM      4  C   GLU A   1      14.057  18.780  42.512  0.00  0.00    +0.224 C 
ATOM      5  O   GLU A   1      13.033  18.156  42.848  0.00  0.00    -0.287 OA
ENDBRANCH   1   4
BRANCH   1   6
ATOM      6  CB  GLU A   1      13.161  20.767  41.279  0.00  0.00    +0.037 C 
BRANCH   6   7
ATOM      7  CG  GLU A   1      12.922  22.257  41.254  0.00  0.00    +0.116 C 
BRANCH   7   8
ATOM      8  CD  GLU A   1      12.139  22.785  42.463  0.00  0.00    +0.365 C 
ATOM      9  OE2 GLU A   1      11.485  21.937  43.135  0.00  0.00    -0.246 OA
ATOM     10  OE1 GLU A   1      12.212  24.020  42.765  0.00  0.00    -0.246 OA
ENDBRANCH   7   8
ENDBRANCH   6   7
ENDBRANCH   1   6
TORSDOF 5
REMARK  Name = ../refined-set-2016/2ptz/2ptz_pocket.pdb
REMARK  181 active torsions:
REMARK  status: ('A' for Active; 'I' for Inactive)
REMARK    1  A    between atoms: _1  and  _3
REMARK    2  A    between atoms: _3  and  _4
REMARK    3  A    between atoms: _3  and  _6
REMARK    4  A    between atoms: _6  and  _7
REMARK    5  A    between atoms: _7  and  _8
REMARK    6  A    between atoms: _8  and  _9
REMARK    7  A    between atoms: _19  and  _20
REMARK    8  A    between atoms: _25  and  _27
REMARK    9  A    between atoms: _27  and  _28
REMARK   10  A    between atoms: _27  and  _30
REMARK   11  A    between atoms: _30  and  _31
REMARK   12  A    between atoms: _33  and  _35
REMARK   13  A    between atoms: _35  and  _36
REMARK   14  A    between atoms: _38  and  _40
REMARK   15  A    between atoms: _40  and  _41
REMARK   16  A    between atoms: _44  and  _46
REMARK   17  A    between atoms: _46  and  _47
REMARK   18  A    between atoms: _46  and  _49
REMARK   19  A    between atoms: _47  and  _48
REMARK   20  A    between atoms: _47  and  _52
REMARK   21  A    between atoms: _48  and  ZN_396
REMARK   22  A    between atoms: _49  and  _50
REMARK   23  A    between atoms: _52  and  _54
REMARK   24  A    between atoms: _54  and  _55
REMARK   25  A    between atoms: _54  and  _57
REMARK   26  A    between atoms: _57  and  _58
REMARK   27  A    between atoms: _61  and  _63
REMARK   28  A    between atoms: _63  and  _64
REMARK   29  A    between atoms: _66  and  _68
REMARK   30  A    between atoms: _68  and  _69
REMARK   31  A    between atoms: _68  and  _71
REMARK   32  A    between atoms: _71  and  _72
REMARK   33  A    between atoms: _72  and  _73
REMARK   34  A    between atoms: _76  and  _78
REMARK   35  A    between atoms: _78  and  _79
REMARK   36  A    between atoms: _78  and  _81
REMARK   37  A    between atoms: _81  and  _82
REMARK   38  A    between atoms: _87  and  _89
REMARK   39  A    between atoms: _89  and  _90
REMARK   40  A    between atoms: _92  and  _94
REMARK   41  A    between atoms: _94  and  _95
REMARK   42  A    between atoms: _94  and  _97
REMARK   43  A    between atoms: _97  and  _98
REMARK   44  A    between atoms: _98  and  _99
REMARK   45  A    between atoms: _99  and  _100
REMARK   46  A    between atoms: _100  and  _101
REMARK   47  A    between atoms: _105  and  _107
REMARK   48  A    between atoms: _107  and  _108
REMARK   49  A    between atoms: _107  and  _110
REMARK   50  A    between atoms: _110  and  _111
REMARK   51  A    between atoms: _111  and  _112
REMARK   52  A    between atoms: _117  and  _119
REMARK   53  A    between atoms: _119  and  _120
REMARK   54  A    between atoms: _119  and  _122
REMARK   55  A    between atoms: _122  and  _123
REMARK   56  A    between atoms: _123  and  _124
REMARK   57  A    between atoms: _127  and  _129
REMARK   58  A    between atoms: _129  and  _130
REMARK   59  A    between atoms: _129  and  _132
REMARK   60  A    between atoms: _132  and  _133
REMARK   61  A    between atoms: _133  and  _134
REMARK   62  A    between atoms: _136  and  _138
REMARK   63  A    between atoms: _138  and  _139
REMARK   64  A    between atoms: _138  and  _141
REMARK   65  A    between atoms: _141  and  _142
REMARK   66  A    between atoms: _145  and  _147
REMARK   67  A    between atoms: _147  and  _148
REMARK   68  A    between atoms: _147  and  _150
REMARK   69  A    between atoms: _150  and  _151
REMARK   70  A    between atoms: _151  and  _152
REMARK   71  A    between atoms: _155  and  _157
REMARK   72  A    between atoms: _157  and  _158
REMARK   73  A    between atoms: _157  and  _160
REMARK   74  A    between atoms: _160  and  _161
REMARK   75  A    between atoms: _161  and  _163
REMARK   76  A    between atoms: _163  and  ZN_395
REMARK   77  A    between atoms: _164  and  _166
REMARK   78  A    between atoms: _166  and  _167
REMARK   79  A    between atoms: _166  and  _169
REMARK   80  A    between atoms: _171  and  _173
REMARK   81  A    between atoms: _173  and  _174
REMARK   82  A    between atoms: _177  and  _179
REMARK   83  A    between atoms: _179  and  _180
REMARK   84  A    between atoms: _183  and  _185
REMARK   85  A    between atoms: _185  and  _186
REMARK   86  A    between atoms: _185  and  _188
REMARK   87  A    between atoms: _188  and  _189
REMARK   88  A    between atoms: _189  and  _190
REMARK   89  A    between atoms: _193  and  _195
REMARK   90  A    between atoms: _195  and  _196
REMARK   91  A    between atoms: _195  and  _198
REMARK   92  A    between atoms: _198  and  _199
REMARK   93  A    between atoms: _199  and  _200
REMARK   94  A    between atoms: _200  and  _202
REMARK   95  A    between atoms: _202  and  ZN_395
REMARK   96  A    between atoms: _203  and  _205
REMARK   97  A    between atoms: _205  and  _206
REMARK   98  A    between atoms: _205  and  _208
REMARK   99  A    between atoms: _208  and  _209
REMARK  100  A    between atoms: _212  and  _214
REMARK  101  A    between atoms: _214  and  _215
REMARK  102  A    between atoms: _214  and  _217
REMARK  103  A    between atoms: _220  and  _222
REMARK  104  A    between atoms: _222  and  _223
REMARK  105  A    between atoms: _225  and  _227
REMARK  106  A    between atoms: _227  and  _228
REMARK  107  A    between atoms: _227  and  _230
REMARK  108  A    between atoms: _230  and  _231
REMARK  109  A    between atoms: _231  and  _233
REMARK  110  A    between atoms: _233  and  ZN_395
REMARK  111  A    between atoms: _234  and  _236
REMARK  112  A    between atoms: _236  and  _237
REMARK  113  A    between atoms: _236  and  _239
REMARK  114  A    between atoms: _239  and  _240
REMARK  115  A    between atoms: _243  and  _245
REMARK  116  A    between atoms: _245  and  _246
REMARK  117  A    between atoms: _245  and  _248
REMARK  118  A    between atoms: _248  and  _249
REMARK  119  A    between atoms: _252  and  _254
REMARK  120  A    between atoms: _254  and  _255
REMARK  121  A    between atoms: _254  and  _257
REMARK  122  A    between atoms: _257  and  _258
REMARK  123  A    between atoms: _261  and  _263
REMARK  124  A    between atoms: _263  and  _264
REMARK  125  A    between atoms: _263  and  _266
REMARK  126  A    between atoms: _266  and  _267
REMARK  127  A    between atoms: _267  and  _268
REMARK  128  A    between atoms: _268  and  _269
REMARK  129  A    between atoms: _269  and  _270
REMARK  130  A    between atoms: _274  and  _276
REMARK  131  A    between atoms: _276  and  _277
REMARK  132  A    between atoms: _276  and  _279
REMARK  133  A    between atoms: _279  and  _280
REMARK  134  A    between atoms: _285  and  _287
REMARK  135  A    between atoms: _287  and  _288
REMARK  136  A    between atoms: _287  and  _290
REMARK  137  A    between atoms: _290  and  _291
REMARK  138  A    between atoms: _291  and  _292
REMARK  139  A    between atoms: _297  and  _299
REMARK  140  A    between atoms: _299  and  _300
REMARK  141  A    between atoms: _299  and  _302
REMARK  142  A    between atoms: _302  and  _303
REMARK  143  A    between atoms: _303  and  _304
REMARK  144  A    between atoms: _306  and  _308
REMARK  145  A    between atoms: _308  and  _309
REMARK  146  A    between atoms: _308  and  _311
REMARK  147  A    between atoms: _311  and  _312
REMARK  148  A    between atoms: _314  and  _316
REMARK  149  A    between atoms: _316  and  _317
REMARK  150  A    between atoms: _316  and  _319
REMARK  151  A    between atoms: _319  and  _320
REMARK  152  A    between atoms: _325  and  _327
REMARK  153  A    between atoms: _327  and  _328
REMARK  154  A    between atoms: _327  and  _330
REMARK  155  A    between atoms: _330  and  _331
REMARK  156  A    between atoms: _331  and  _332
REMARK  157  A    between atoms: _332  and  _333
REMARK  158  A    between atoms: _342  and  _344
REMARK  159  A    between atoms: _344  and  _345
REMARK  160  A    between atoms: _344  and  _347
REMARK  161  A    between atoms: _347  and  _348
REMARK  162  A    between atoms: _350  and  _352
REMARK  163  A    between atoms: _352  and  _353
REMARK  164  A    between atoms: _355  and  _357
REMARK  165  A    between atoms: _357  and  _358
REMARK  166  A    between atoms: _357  and  _360
REMARK  167  A    between atoms: _360  and  _361
REMARK  168  A    between atoms: _361  and  _362
REMARK  169  A    between atoms: _365  and  _367
REMARK  170  A    between atoms: _367  and  _368
REMARK  171  A    between atoms: _367  and  _370
REMARK  172  A    between atoms: _370  and  _371
REMARK  173  A    between atoms: _371  and  _372
REMARK  174  A    between atoms: _372  and  _373
REMARK  175  A    between atoms: _373  and  _374
REMARK  176  A    between atoms: _378  and  _380
REMARK  177  A    between atoms: _380  and  _381
REMARK  178  A    between atoms: _380  and  _383
REMARK  179  A    between atoms: _383  and  _384
REMARK  180  A    between atoms: _384  and  _385
REMARK  181  A    between atoms: _385  and  _386
REMARK                            x       y       z     vdW  Elec       q    Type
REMARK                         _______ _______ _______ _____ _____    ______ ____
ROOT
ATOM      1  CA  LEU A   2      18.712  37.633  36.180  0.00  0.00    +0.149 C 
ENDROOT
BRANCH   1   4
ATOM      2  C   LEU A   1      19.550  35.367  36.154  0.00  0.00    +0.238 C 
ATOM      3  O   LEU A   1      19.455  35.291  37.364  0.00  0.00    -0.274 OA
ATOM      4  N   LEU A   2      19.152  36.423  35.454  0.00  0.00    -0.297 N 
ATOM      5  H   LEU A   2      19.150  36.399  34.414  0.00  0.00    +0.150 HD
BRANCH   2   6
ATOM      6  CA  LEU A   1      20.223  34.225  35.395  0.00  0.00    +0.145 C 
BRANCH   6   7
ATOM      7  N   LEU A   1      21.607  34.156  35.849  0.00  0.00    -0.238 NA
ATOM      8  H   LEU A   1      21.907  33.467  36.568  0.00  0.00    +0.142 HD
ENDBRANCH   6   7
BRANCH   6   9
ATOM      9  CB  LEU A   1      19.458  32.906  35.616  0.00  0.00    +0.026 C 
BRANCH   9  10
ATOM     10  CG  LEU A   1      18.202  32.939  34.743  0.00  0.00    +0.002 C 
ATOM     11  CD2 LEU A   1      17.126  31.922  35.235  0.00  0.00    +0.000 C 
ATOM     12  CD1 LEU A   1      18.588  32.717  33.224  0.00  0.00    +0.000 C 
ENDBRANCH   9  10
ENDBRANCH   6   9
ENDBRANCH   2   6
ENDBRANCH   1   4
BRANCH   1  13
ATOM     13  C   LEU A   2      17.193  37.638  36.220  0.00  0.00    +0.241 C 
ATOM     14  N   LYS A   3      16.700  37.503  37.439  0.00  0.00    -0.298 N 
ATOM     15  H   LYS A   3      17.347  37.401  38.247  0.00  0.00    +0.150 HD
ATOM     16  O   LEU A   2      16.490  37.724  35.204  0.00  0.00    -0.273 OA
BRANCH  14  17
ATOM     17  CA  LYS A   3      15.239  37.496  37.666  0.00  0.00    +0.137 C 
BRANCH  17  18
ATOM     18  C   LYS A   3      14.912  38.613  38.617  0.00  0.00    +0.227 C 
ATOM     19  O   LYS A   3      15.255  38.589  39.810  0.00  0.00    -0.286 OA
ENDBRANCH  17  18
BRANCH  17  20
ATOM     20  CB  LYS A   3      14.789  36.171  38.275  0.00  0.00    +0.028 C 
BRANCH  20  21
ATOM     21  CG  LYS A   3      14.589  35.104  37.243  0.00  0.00    -0.000 C 
BRANCH  21  22
ATOM     22  CD  LYS A   3      14.529  33.796  37.947  0.00  0.00    -0.024 C 
BRANCH  22  23
ATOM     23  CE  LYS A   3      14.225  32.681  36.919  0.00  0.00    -0.086 C 
BRANCH  23  24
ATOM     24  NZ  LYS A   3      14.503  31.332  37.548  0.00  0.00    +0.380 N 
ATOM     25  HZ1 LYS A   3      13.898  31.210  38.385  0.00  0.00    -0.089 HD
ATOM     26  HZ2 LYS A   3      15.502  31.282  37.831  0.00  0.00    -0.089 HD
ATOM     27  HZ3 LYS A   3      14.299  30.581  36.858  0.00  0.00    -0.089 HD
ENDBRANCH  23  24
ENDBRANCH  22  23
ENDBRANCH  21  22
ENDBRANCH  20  21
ENDBRANCH  17  20
ENDBRANCH  14  17
ENDBRANCH   1  13
BRANCH   1  28
ATOM     28  CB  LEU A   2      19.278  38.904  35.504  0.00  0.00    +0.029 C 
BRANCH  28  29
ATOM     29  CG  LEU A   2      18.976  40.222  36.210  0.00  0.00    +0.002 C 
ATOM     30  CD2 LEU A   2      17.553  40.710  35.990  0.00  0.00    +0.000 C 
ATOM     31  CD1 LEU A   2      19.900  41.275  35.681  0.00  0.00    +0.000 C 
ENDBRANCH  28  29
ENDBRANCH   1  28
TORSDOF 15
REMARK  Name = ../refined-set-2016/2ptz/2ptz_pocket.pdb
REMARK  181 active torsions:
REMARK  status: ('A' for Active; 'I' for Inactive)
REMARK    1  A    between atoms: _1  and  _3
REMARK    2  A    between atoms: _3  and  _4
REMARK    3  A    between atoms: _3  and  _6
REMARK    4  A    between atoms: _6  and  _7
REMARK    5  A    between atoms: _7  and  _8
REMARK    6  A    between atoms: _8  and  _9
REMARK    7  A    between atoms: _19  and  _20
REMARK    8  A    between atoms: _25  and  _27
REMARK    9  A    between atoms: _27  and  _28
REMARK   10  A    between atoms: _27  and  _30
REMARK   11  A    between atoms: _30  and  _31
REMARK   12  A    between atoms: _33  and  _35
REMARK   13  A    between atoms: _35  and  _36
REMARK   14  A    between atoms: _38  and  _40
REMARK   15  A    between atoms: _40  and  _41
REMARK   16  A    between atoms: _44  and  _46
REMARK   17  A    between atoms: _46  and  _47
REMARK   18  A    between atoms: _46  and  _49
REMARK   19  A    between atoms: _47  and  _48
REMARK   20  A    between atoms: _47  and  _52
REMARK   21  A    between atoms: _48  and  ZN_396
REMARK   22  A    between atoms: _49  and  _50
REMARK   23  A    between atoms: _52  and  _54
REMARK   24  A    between atoms: _54  and  _55
REMARK   25  A    between atoms: _54  and  _57
REMARK   26  A    between atoms: _57  and  _58
REMARK   27  A    between atoms: _61  and  _63
REMARK   28  A    between atoms: _63  and  _64
REMARK   29  A    between atoms: _66  and  _68
REMARK   30  A    between atoms: _68  and  _69
REMARK   31  A    between atoms: _68  and  _71
REMARK   32  A    between atoms: _71  and  _72
REMARK   33  A    between atoms: _72  and  _73
REMARK   34  A    between atoms: _76  and  _78
REMARK   35  A    between atoms: _78  and  _79
REMARK   36  A    between atoms: _78  and  _81
REMARK   37  A    between atoms: _81  and  _82
REMARK   38  A    between atoms: _87  and  _89
REMARK   39  A    between atoms: _89  and  _90
REMARK   40  A    between atoms: _92  and  _94
REMARK   41  A    between atoms: _94  and  _95
REMARK   42  A    between atoms: _94  and  _97
REMARK   43  A    between atoms: _97  and  _98
REMARK   44  A    between atoms: _98  and  _99
REMARK   45  A    between atoms: _99  and  _100
REMARK   46  A    between atoms: _100  and  _101
REMARK   47  A    between atoms: _105  and  _107
REMARK   48  A    between atoms: _107  and  _108
REMARK   49  A    between atoms: _107  and  _110
REMARK   50  A    between atoms: _110  and  _111
REMARK   51  A    between atoms: _111  and  _112
REMARK   52  A    between atoms: _117  and  _119
REMARK   53  A    between atoms: _119  and  _120
REMARK   54  A    between atoms: _119  and  _122
REMARK   55  A    between atoms: _122  and  _123
REMARK   56  A    between atoms: _123  and  _124
REMARK   57  A    between atoms: _127  and  _129
REMARK   58  A    between atoms: _129  and  _130
REMARK   59  A    between atoms: _129  and  _132
REMARK   60  A    between atoms: _132  and  _133
REMARK   61  A    between atoms: _133  and  _134
REMARK   62  A    between atoms: _136  and  _138
REMARK   63  A    between atoms: _138  and  _139
REMARK   64  A    between atoms: _138  and  _141
REMARK   65  A    between atoms: _141  and  _142
REMARK   66  A    between atoms: _145  and  _147
REMARK   67  A    between atoms: _147  and  _148
REMARK   68  A    between atoms: _147  and  _150
REMARK   69  A    between atoms: _150  and  _151
REMARK   70  A    between atoms: _151  and  _152
REMARK   71  A    between atoms: _155  and  _157
REMARK   72  A    between atoms: _157  and  _158
REMARK   73  A    between atoms: _157  and  _160
REMARK   74  A    between atoms: _160  and  _161
REMARK   75  A    between atoms: _161  and  _163
REMARK   76  A    between atoms: _163  and  ZN_395
REMARK   77  A    between atoms: _164  and  _166
REMARK   78  A    between atoms: _166  and  _167
REMARK   79  A    between atoms: _166  and  _169
REMARK   80  A    between atoms: _171  and  _173
REMARK   81  A    between atoms: _173  and  _174
REMARK   82  A    between atoms: _177  and  _179
REMARK   83  A    between atoms: _179  and  _180
REMARK   84  A    between atoms: _183  and  _185
REMARK   85  A    between atoms: _185  and  _186
REMARK   86  A    between atoms: _185  and  _188
REMARK   87  A    between atoms: _188  and  _189
REMARK   88  A    between atoms: _189  and  _190
REMARK   89  A    between atoms: _193  and  _195
REMARK   90  A    between atoms: _195  and  _196
REMARK   91  A    between atoms: _195  and  _198
REMARK   92  A    between atoms: _198  and  _199
REMARK   93  A    between atoms: _199  and  _200
REMARK   94  A    between atoms: _200  and  _202
REMARK   95  A    between atoms: _202  and  ZN_395
REMARK   96  A    between atoms: _203  and  _205
REMARK   97  A    between atoms: _205  and  _206
REMARK   98  A    between atoms: _205  and  _208
REMARK   99  A    between atoms: _208  and  _209
REMARK  100  A    between atoms: _212  and  _214
REMARK  101  A    between atoms: _214  and  _215
REMARK  102  A    between atoms: _214  and  _217
REMARK  103  A    between atoms: _220  and  _222
REMARK  104  A    between atoms: _222  and  _223
REMARK  105  A    between atoms: _225  and  _227
REMARK  106  A    between atoms: _227  and  _228
REMARK  107  A    between atoms: _227  and  _230
REMARK  108  A    between atoms: _230  and  _231
REMARK  109  A    between atoms: _231  and  _233
REMARK  110  A    between atoms: _233  and  ZN_395
REMARK  111  A    between atoms: _234  and  _236
REMARK  112  A    between atoms: _236  and  _237
REMARK  113  A    between atoms: _236  and  _239
REMARK  114  A    between atoms: _239  and  _240
REMARK  115  A    between atoms: _243  and  _245
REMARK  116  A    between atoms: _245  and  _246
REMARK  117  A    between atoms: _245  and  _248
REMARK  118  A    between atoms: _248  and  _249
REMARK  119  A    between atoms: _252  and  _254
REMARK  120  A    between atoms: _254  and  _255
REMARK  121  A    between atoms: _254  and  _257
REMARK  122  A    between atoms: _257  and  _258
REMARK  123  A    between atoms: _261  and  _263
REMARK  124  A    between atoms: _263  and  _264
REMARK  125  A    between atoms: _263  and  _266
REMARK  126  A    between atoms: _266  and  _267
REMARK  127  A    between atoms: _267  and  _268
REMARK  128  A    between atoms: _268  and  _269
REMARK  129  A    between atoms: _269  and  _270
REMARK  130  A    between atoms: _274  and  _276
REMARK  131  A    between atoms: _276  and  _277
REMARK  132  A    between atoms: _276  and  _279
REMARK  133  A    between atoms: _279  and  _280
REMARK  134  A    between atoms: _285  and  _287
REMARK  135  A    between atoms: _287  and  _288
REMARK  136  A    between atoms: _287  and  _290
REMARK  137  A    between atoms: _290  and  _291
REMARK  138  A    between atoms: _291  and  _292
REMARK  139  A    between atoms: _297  and  _299
REMARK  140  A    between atoms: _299  and  _300
REMARK  141  A    between atoms: _299  and  _302
REMARK  142  A    between atoms: _302  and  _303
REMARK  143  A    between atoms: _303  and  _304
REMARK  144  A    between atoms: _306  and  _308
REMARK  145  A    between atoms: _308  and  _309
REMARK  146  A    between atoms: _308  and  _311
REMARK  147  A    between atoms: _311  and  _312
REMARK  148  A    between atoms: _314  and  _316
REMARK  149  A    between atoms: _316  and  _317
REMARK  150  A    between atoms: _316  and  _319
REMARK  151  A    between atoms: _319  and  _320
REMARK  152  A    between atoms: _325  and  _327
REMARK  153  A    between atoms: _327  and  _328
REMARK  154  A    between atoms: _327  and  _330
REMARK  155  A    between atoms: _330  and  _331
REMARK  156  A    between atoms: _331  and  _332
REMARK  157  A    between atoms: _332  and  _333
REMARK  158  A    between atoms: _342  and  _344
REMARK  159  A    between atoms: _344  and  _345
REMARK  160  A    between atoms: _344  and  _347
REMARK  161  A    between atoms: _347  and  _348
REMARK  162  A    between atoms: _350  and  _352
REMARK  163  A    between atoms: _352  and  _353
REMARK  164  A    between atoms: _355  and  _357
REMARK  165  A    between atoms: _357  and  _358
REMARK  166  A    between atoms: _357  and  _360
REMARK  167  A    between atoms: _360  and  _361
REMARK  168  A    between atoms: _361  and  _362
REMARK  169  A    between atoms: _365  and  _367
REMARK  170  A    between atoms: _367  and  _368
REMARK  171  A    between atoms: _367  and  _370
REMARK  172  A    between atoms: _370  and  _371
REMARK  173  A    between atoms: _371  and  _372
REMARK  174  A    between atoms: _372  and  _373
REMARK  175  A    between atoms: _373  and  _374
REMARK  176  A    between atoms: _378  and  _380
REMARK  177  A    between atoms: _380  and  _381
REMARK  178  A    between atoms: _380  and  _383
REMARK  179  A    between atoms: _383  and  _384
REMARK  180  A    between atoms: _384  and  _385
REMARK  181  A    between atoms: _385  and  _386
REMARK                            x       y       z     vdW  Elec       q    Type
REMARK                         _______ _______ _______ _____ _____    ______ ____
ROOT
ATOM      1  C   ASN A   1      12.247  38.069  42.197  0.00  0.00    +0.239 C 
ATOM      2  O   ASN A   1      11.663  37.671  43.211  0.00  0.00    -0.274 OA
ATOM      3  N   GLN A   2      13.499  37.695  41.870  0.00  0.00    -0.298 N 
ATOM      4  H   GLN A   2      13.895  37.966  40.947  0.00  0.00    +0.150 HD
ENDROOT
BRANCH   1   5
ATOM      5  CA  ASN A   1      11.520  39.028  41.250  0.00  0.00    +0.154 C 
BRANCH   5   6
ATOM      6  N   ASN A   1      12.294  39.423  40.054  0.00  0.00    -0.238 NA
ATOM      7  H   ASN A   1      12.126  38.957  39.139  0.00  0.00    +0.142 HD
ENDBRANCH   5   6
BRANCH   5   8
ATOM      8  CB  ASN A   1      10.119  38.526  40.873  0.00  0.00    +0.111 C 
BRANCH   8   9
ATOM      9  CG  ASN A   1      10.031  36.978  40.807  0.00  0.00    +0.221 C 
ATOM     10  ND2 ASN A   1       9.143  36.373  41.613  0.00  0.00    -0.329 N 
ATOM     11 HD21 ASN A   1       8.536  36.941  42.238  0.00  0.00    +0.145 HD
ATOM     12 HD22 ASN A   1       9.062  35.336  41.612  0.00  0.00    +0.145 HD
ATOM     13  OD1 ASN A   1      10.786  36.352  40.036  0.00  0.00    -0.275 OA
ENDBRANCH   8   9
ENDBRANCH   5   8
ENDBRANCH   1   5
BRANCH   3  14
ATOM     14  CA  GLN A   2      14.305  36.911  42.804  0.00  0.00    +0.137 C 
BRANCH  14  15
ATOM     15  C   GLN A   2      14.848  37.857  43.843  0.00  0.00    +0.227 C 
ATOM     16  O   GLN A   2      15.122  37.426  44.939  0.00  0.00    -0.286 OA
ENDBRANCH  14  15
BRANCH  14  17
ATOM     17  CB  GLN A   2      15.457  36.185  42.134  0.00  0.00    +0.037 C 
BRANCH  17  18
ATOM     18  CG  GLN A   2      14.953  34.840  41.591  0.00  0.00    +0.087 C 
BRANCH  18  19
ATOM     19  CD  GLN A   2      16.108  34.045  40.985  0.00  0.00    +0.219 C 
ATOM     20  NE2 GLN A   2      16.015  32.701  41.047  0.00  0.00    -0.329 N 
ATOM     21 HE21 GLN A   2      15.178  32.257  41.476  0.00  0.00    +0.145 HD
ATOM     22 HE22 GLN A   2      16.780  32.109  40.666  0.00  0.00    +0.145 HD
ATOM     23  OE1 GLN A   2      17.085  34.642  40.484  0.00  0.00    -0.275 OA
ENDBRANCH  18  19
ENDBRANCH  17  18
ENDBRANCH  14  17
ENDBRANCH   3  14
TORSDOF 9
REMARK  Name = ../refined-set-2016/2ptz/2ptz_pocket.pdb
REMARK  181 active torsions:
REMARK  status: ('A' for Active; 'I' for Inactive)
REMARK    1  A    between atoms: _1  and  _3
REMARK    2  A    between atoms: _3  and  _4
REMARK    3  A    between atoms: _3  and  _6
REMARK    4  A    between atoms: _6  and  _7
REMARK    5  A    between atoms: _7  and  _8
REMARK    6  A    between atoms: _8  and  _9
REMARK    7  A    between atoms: _19  and  _20
REMARK    8  A    between atoms: _25  and  _27
REMARK    9  A    between atoms: _27  and  _28
REMARK   10  A    between atoms: _27  and  _30
REMARK   11  A    between atoms: _30  and  _31
REMARK   12  A    between atoms: _33  and  _35
REMARK   13  A    between atoms: _35  and  _36
REMARK   14  A    between atoms: _38  and  _40
REMARK   15  A    between atoms: _40  and  _41
REMARK   16  A    between atoms: _44  and  _46
REMARK   17  A    between atoms: _46  and  _47
REMARK   18  A    between atoms: _46  and  _49
REMARK   19  A    between atoms: _47  and  _48
REMARK   20  A    between atoms: _47  and  _52
REMARK   21  A    between atoms: _48  and  ZN_396
REMARK   22  A    between atoms: _49  and  _50
REMARK   23  A    between atoms: _52  and  _54
REMARK   24  A    between atoms: _54  and  _55
REMARK   25  A    between atoms: _54  and  _57
REMARK   26  A    between atoms: _57  and  _58
REMARK   27  A    between atoms: _61  and  _63
REMARK   28  A    between atoms: _63  and  _64
REMARK   29  A    between atoms: _66  and  _68
REMARK   30  A    between atoms: _68  and  _69
REMARK   31  A    between atoms: _68  and  _71
REMARK   32  A    between atoms: _71  and  _72
REMARK   33  A    between atoms: _72  and  _73
REMARK   34  A    between atoms: _76  and  _78
REMARK   35  A    between atoms: _78  and  _79
REMARK   36  A    between atoms: _78  and  _81
REMARK   37  A    between atoms: _81  and  _82
REMARK   38  A    between atoms: _87  and  _89
REMARK   39  A    between atoms: _89  and  _90
REMARK   40  A    between atoms: _92  and  _94
REMARK   41  A    between atoms: _94  and  _95
REMARK   42  A    between atoms: _94  and  _97
REMARK   43  A    between atoms: _97  and  _98
REMARK   44  A    between atoms: _98  and  _99
REMARK   45  A    between atoms: _99  and  _100
REMARK   46  A    between atoms: _100  and  _101
REMARK   47  A    between atoms: _105  and  _107
REMARK   48  A    between atoms: _107  and  _108
REMARK   49  A    between atoms: _107  and  _110
REMARK   50  A    between atoms: _110  and  _111
REMARK   51  A    between atoms: _111  and  _112
REMARK   52  A    between atoms: _117  and  _119
REMARK   53  A    between atoms: _119  and  _120
REMARK   54  A    between atoms: _119  and  _122
REMARK   55  A    between atoms: _122  and  _123
REMARK   56  A    between atoms: _123  and  _124
REMARK   57  A    between atoms: _127  and  _129
REMARK   58  A    between atoms: _129  and  _130
REMARK   59  A    between atoms: _129  and  _132
REMARK   60  A    between atoms: _132  and  _133
REMARK   61  A    between atoms: _133  and  _134
REMARK   62  A    between atoms: _136  and  _138
REMARK   63  A    between atoms: _138  and  _139
REMARK   64  A    between atoms: _138  and  _141
REMARK   65  A    between atoms: _141  and  _142
REMARK   66  A    between atoms: _145  and  _147
REMARK   67  A    between atoms: _147  and  _148
REMARK   68  A    between atoms: _147  and  _150
REMARK   69  A    between atoms: _150  and  _151
REMARK   70  A    between atoms: _151  and  _152
REMARK   71  A    between atoms: _155  and  _157
REMARK   72  A    between atoms: _157  and  _158
REMARK   73  A    between atoms: _157  and  _160
REMARK   74  A    between atoms: _160  and  _161
REMARK   75  A    between atoms: _161  and  _163
REMARK   76  A    between atoms: _163  and  ZN_395
REMARK   77  A    between atoms: _164  and  _166
REMARK   78  A    between atoms: _166  and  _167
REMARK   79  A    between atoms: _166  and  _169
REMARK   80  A    between atoms: _171  and  _173
REMARK   81  A    between atoms: _173  and  _174
REMARK   82  A    between atoms: _177  and  _179
REMARK   83  A    between atoms: _179  and  _180
REMARK   84  A    between atoms: _183  and  _185
REMARK   85  A    between atoms: _185  and  _186
REMARK   86  A    between atoms: _185  and  _188
REMARK   87  A    between atoms: _188  and  _189
REMARK   88  A    between atoms: _189  and  _190
REMARK   89  A    between atoms: _193  and  _195
REMARK   90  A    between atoms: _195  and  _196
REMARK   91  A    between atoms: _195  and  _198
REMARK   92  A    between atoms: _198  and  _199
REMARK   93  A    between atoms: _199  and  _200
REMARK   94  A    between atoms: _200  and  _202
REMARK   95  A    between atoms: _202  and  ZN_395
REMARK   96  A    between atoms: _203  and  _205
REMARK   97  A    between atoms: _205  and  _206
REMARK   98  A    between atoms: _205  and  _208
REMARK   99  A    between atoms: _208  and  _209
REMARK  100  A    between atoms: _212  and  _214
REMARK  101  A    between atoms: _214  and  _215
REMARK  102  A    between atoms: _214  and  _217
REMARK  103  A    between atoms: _220  and  _222
REMARK  104  A    between atoms: _222  and  _223
REMARK  105  A    between atoms: _225  and  _227
REMARK  106  A    between atoms: _227  and  _228
REMARK  107  A    between atoms: _227  and  _230
REMARK  108  A    between atoms: _230  and  _231
REMARK  109  A    between atoms: _231  and  _233
REMARK  110  A    between atoms: _233  and  ZN_395
REMARK  111  A    between atoms: _234  and  _236
REMARK  112  A    between atoms: _236  and  _237
REMARK  113  A    between atoms: _236  and  _239
REMARK  114  A    between atoms: _239  and  _240
REMARK  115  A    between atoms: _243  and  _245
REMARK  116  A    between atoms: _245  and  _246
REMARK  117  A    between atoms: _245  and  _248
REMARK  118  A    between atoms: _248  and  _249
REMARK  119  A    between atoms: _252  and  _254
REMARK  120  A    between atoms: _254  and  _255
REMARK  121  A    between atoms: _254  and  _257
REMARK  122  A    between atoms: _257  and  _258
REMARK  123  A    between atoms: _261  and  _263
REMARK  124  A    between atoms: _263  and  _264
REMARK  125  A    between atoms: _263  and  _266
REMARK  126  A    between atoms: _266  and  _267
REMARK  127  A    between atoms: _267  and  _268
REMARK  128  A    between atoms: _268  and  _269
REMARK  129  A    between atoms: _269  and  _270
REMARK  130  A    between atoms: _274  and  _276
REMARK  131  A    between atoms: _276  and  _277
REMARK  132  A    between atoms: _276  and  _279
REMARK  133  A    between atoms: _279  and  _280
REMARK  134  A    between atoms: _285  and  _287
REMARK  135  A    between atoms: _287  and  _288
REMARK  136  A    between atoms: _287  and  _290
REMARK  137  A    between atoms: _290  and  _291
REMARK  138  A    between atoms: _291  and  _292
REMARK  139  A    between atoms: _297  and  _299
REMARK  140  A    between atoms: _299  and  _300
REMARK  141  A    between atoms: _299  and  _302
REMARK  142  A    between atoms: _302  and  _303
REMARK  143  A    between atoms: _303  and  _304
REMARK  144  A    between atoms: _306  and  _308
REMARK  145  A    between atoms: _308  and  _309
REMARK  146  A    between atoms: _308  and  _311
REMARK  147  A    between atoms: _311  and  _312
REMARK  148  A    between atoms: _314  and  _316
REMARK  149  A    between atoms: _316  and  _317
REMARK  150  A    between atoms: _316  and  _319
REMARK  151  A    between atoms: _319  and  _320
REMARK  152  A    between atoms: _325  and  _327
REMARK  153  A    between atoms: _327  and  _328
REMARK  154  A    between atoms: _327  and  _330
REMARK  155  A    between atoms: _330  and  _331
REMARK  156  A    between atoms: _331  and  _332
REMARK  157  A    between atoms: _332  and  _333
REMARK  158  A    between atoms: _342  and  _344
REMARK  159  A    between atoms: _344  and  _345
REMARK  160  A    between atoms: _344  and  _347
REMARK  161  A    between atoms: _347  and  _348
REMARK  162  A    between atoms: _350  and  _352
REMARK  163  A    between atoms: _352  and  _353
REMARK  164  A    between atoms: _355  and  _357
REMARK  165  A    between atoms: _357  and  _358
REMARK  166  A    between atoms: _357  and  _360
REMARK  167  A    between atoms: _360  and  _361
REMARK  168  A    between atoms: _361  and  _362
REMARK  169  A    between atoms: _365  and  _367
REMARK  170  A    between atoms: _367  and  _368
REMARK  171  A    between atoms: _367  and  _370
REMARK  172  A    between atoms: _370  and  _371
REMARK  173  A    between atoms: _371  and  _372
REMARK  174  A    between atoms: _372  and  _373
REMARK  175  A    between atoms: _373  and  _374
REMARK  176  A    between atoms: _378  and  _380
REMARK  177  A    between atoms: _380  and  _381
REMARK  178  A    between atoms: _380  and  _383
REMARK  179  A    between atoms: _383  and  _384
REMARK  180  A    between atoms: _384  and  _385
REMARK  181  A    between atoms: _385  and  _386
REMARK                            x       y       z     vdW  Elec       q    Type
REMARK                         _______ _______ _______ _____ _____    ______ ____
ROOT
ATOM      1  CA  MET A   1      20.760  36.049  30.861  0.00  0.00    +0.134 C 
ENDROOT
BRANCH   1   2
ATOM      2  N   MET A   1      21.919  36.434  31.611  0.00  0.00    -0.239 NA
ATOM      3  H   MET A   1      22.115  35.959  32.515  0.00  0.00    +0.142 HD
ENDBRANCH   1   2
BRANCH   1   4
ATOM      4  C   MET A   1      19.519  36.518  31.621  0.00  0.00    +0.224 C 
ATOM      5  O   MET A   1      19.178  35.984  32.658  0.00  0.00    -0.287 OA
ENDBRANCH   1   4
BRANCH   1   6
ATOM      6  CB  MET A   1      20.735  34.523  30.669  0.00  0.00    +0.037 C 
BRANCH   6   7
ATOM      7  CG  MET A   1      19.565  34.067  29.867  0.00  0.00    +0.059 C 
BRANCH   7   8
ATOM      8  SD  MET A   1      19.420  32.288  29.607  0.00  0.00    -0.139 S 
ATOM      9  CE  MET A   1      20.996  31.967  28.781  0.00  0.00    +0.069 C 
ENDBRANCH   7   8
ENDBRANCH   6   7
ENDBRANCH   1   6
TORSDOF 5
REMARK  Name = ../refined-set-2016/2ptz/2ptz_pocket.pdb
REMARK  181 active torsions:
REMARK  status: ('A' for Active; 'I' for Inactive)
REMARK    1  A    between atoms: _1  and  _3
REMARK    2  A    between atoms: _3  and  _4
REMARK    3  A    between atoms: _3  and  _6
REMARK    4  A    between atoms: _6  and  _7
REMARK    5  A    between atoms: _7  and  _8
REMARK    6  A    between atoms: _8  and  _9
REMARK    7  A    between atoms: _19  and  _20
REMARK    8  A    between atoms: _25  and  _27
REMARK    9  A    between atoms: _27  and  _28
REMARK   10  A    between atoms: _27  and  _30
REMARK   11  A    between atoms: _30  and  _31
REMARK   12  A    between atoms: _33  and  _35
REMARK   13  A    between atoms: _35  and  _36
REMARK   14  A    between atoms: _38  and  _40
REMARK   15  A    between atoms: _40  and  _41
REMARK   16  A    between atoms: _44  and  _46
REMARK   17  A    between atoms: _46  and  _47
REMARK   18  A    between atoms: _46  and  _49
REMARK   19  A    between atoms: _47  and  _48
REMARK   20  A    between atoms: _47  and  _52
REMARK   21  A    between atoms: _48  and  ZN_396
REMARK   22  A    between atoms: _49  and  _50
REMARK   23  A    between atoms: _52  and  _54
REMARK   24  A    between atoms: _54  and  _55
REMARK   25  A    between atoms: _54  and  _57
REMARK   26  A    between atoms: _57  and  _58
REMARK   27  A    between atoms: _61  and  _63
REMARK   28  A    between atoms: _63  and  _64
REMARK   29  A    between atoms: _66  and  _68
REMARK   30  A    between atoms: _68  and  _69
REMARK   31  A    between atoms: _68  and  _71
REMARK   32  A    between atoms: _71  and  _72
REMARK   33  A    between atoms: _72  and  _73
REMARK   34  A    between atoms: _76  and  _78
REMARK   35  A    between atoms: _78  and  _79
REMARK   36  A    between atoms: _78  and  _81
REMARK   37  A    between atoms: _81  and  _82
REMARK   38  A    between atoms: _87  and  _89
REMARK   39  A    between atoms: _89  and  _90
REMARK   40  A    between atoms: _92  and  _94
REMARK   41  A    between atoms: _94  and  _95
REMARK   42  A    between atoms: _94  and  _97
REMARK   43  A    between atoms: _97  and  _98
REMARK   44  A    between atoms: _98  and  _99
REMARK   45  A    between atoms: _99  and  _100
REMARK   46  A    between atoms: _100  and  _101
REMARK   47  A    between atoms: _105  and  _107
REMARK   48  A    between atoms: _107  and  _108
REMARK   49  A    between atoms: _107  and  _110
REMARK   50  A    between atoms: _110  and  _111
REMARK   51  A    between atoms: _111  and  _112
REMARK   52  A    between atoms: _117  and  _119
REMARK   53  A    between atoms: _119  and  _120
REMARK   54  A    between atoms: _119  and  _122
REMARK   55  A    between atoms: _122  and  _123
REMARK   56  A    between atoms: _123  and  _124
REMARK   57  A    between atoms: _127  and  _129
REMARK   58  A    between atoms: _129  and  _130
REMARK   59  A    between atoms: _129  and  _132
REMARK   60  A    between atoms: _132  and  _133
REMARK   61  A    between atoms: _133  and  _134
REMARK   62  A    between atoms: _136  and  _138
REMARK   63  A    between atoms: _138  and  _139
REMARK   64  A    between atoms: _138  and  _141
REMARK   65  A    between atoms: _141  and  _142
REMARK   66  A    between atoms: _145  and  _147
REMARK   67  A    between atoms: _147  and  _148
REMARK   68  A    between atoms: _147  and  _150
REMARK   69  A    between atoms: _150  and  _151
REMARK   70  A    between atoms: _151  and  _152
REMARK   71  A    between atoms: _155  and  _157
REMARK   72  A    between atoms: _157  and  _158
REMARK   73  A    between atoms: _157  and  _160
REMARK   74  A    between atoms: _160  and  _161
REMARK   75  A    between atoms: _161  and  _163
REMARK   76  A    between atoms: _163  and  ZN_395
REMARK   77  A    between atoms: _164  and  _166
REMARK   78  A    between atoms: _166  and  _167
REMARK   79  A    between atoms: _166  and  _169
REMARK   80  A    between atoms: _171  and  _173
REMARK   81  A    between atoms: _173  and  _174
REMARK   82  A    between atoms: _177  and  _179
REMARK   83  A    between atoms: _179  and  _180
REMARK   84  A    between atoms: _183  and  _185
REMARK   85  A    between atoms: _185  and  _186
REMARK   86  A    between atoms: _185  and  _188
REMARK   87  A    between atoms: _188  and  _189
REMARK   88  A    between atoms: _189  and  _190
REMARK   89  A    between atoms: _193  and  _195
REMARK   90  A    between atoms: _195  and  _196
REMARK   91  A    between atoms: _195  and  _198
REMARK   92  A    between atoms: _198  and  _199
REMARK   93  A    between atoms: _199  and  _200
REMARK   94  A    between atoms: _200  and  _202
REMARK   95  A    between atoms: _202  and  ZN_395
REMARK   96  A    between atoms: _203  and  _205
REMARK   97  A    between atoms: _205  and  _206
REMARK   98  A    between atoms: _205  and  _208
REMARK   99  A    between atoms: _208  and  _209
REMARK  100  A    between atoms: _212  and  _214
REMARK  101  A    between atoms: _214  and  _215
REMARK  102  A    between atoms: _214  and  _217
REMARK  103  A    between atoms: _220  and  _222
REMARK  104  A    between atoms: _222  and  _223
REMARK  105  A    between atoms: _225  and  _227
REMARK  106  A    between atoms: _227  and  _228
REMARK  107  A    between atoms: _227  and  _230
REMARK  108  A    between atoms: _230  and  _231
REMARK  109  A    between atoms: _231  and  _233
REMARK  110  A    between atoms: _233  and  ZN_395
REMARK  111  A    between atoms: _234  and  _236
REMARK  112  A    between atoms: _236  and  _237
REMARK  113  A    between atoms: _236  and  _239
REMARK  114  A    between atoms: _239  and  _240
REMARK  115  A    between atoms: _243  and  _245
REMARK  116  A    between atoms: _245  and  _246
REMARK  117  A    between atoms: _245  and  _248
REMARK  118  A    between atoms: _248  and  _249
REMARK  119  A    between atoms: _252  and  _254
REMARK  120  A    between atoms: _254  and  _255
REMARK  121  A    between atoms: _254  and  _257
REMARK  122  A    between atoms: _257  and  _258
REMARK  123  A    between atoms: _261  and  _263
REMARK  124  A    between atoms: _263  and  _264
REMARK  125  A    between atoms: _263  and  _266
REMARK  126  A    between atoms: _266  and  _267
REMARK  127  A    between atoms: _267  and  _268
REMARK  128  A    between atoms: _268  and  _269
REMARK  129  A    between atoms: _269  and  _270
REMARK  130  A    between atoms: _274  and  _276
REMARK  131  A    between atoms: _276  and  _277
REMARK  132  A    between atoms: _276  and  _279
REMARK  133  A    between atoms: _279  and  _280
REMARK  134  A    between atoms: _285  and  _287
REMARK  135  A    between atoms: _287  and  _288
REMARK  136  A    between atoms: _287  and  _290
REMARK  137  A    between atoms: _290  and  _291
REMARK  138  A    between atoms: _291  and  _292
REMARK  139  A    between atoms: _297  and  _299
REMARK  140  A    between atoms: _299  and  _300
REMARK  141  A    between atoms: _299  and  _302
REMARK  142  A    between atoms: _302  and  _303
REMARK  143  A    between atoms: _303  and  _304
REMARK  144  A    between atoms: _306  and  _308
REMARK  145  A    between atoms: _308  and  _309
REMARK  146  A    between atoms: _308  and  _311
REMARK  147  A    between atoms: _311  and  _312
REMARK  148  A    between atoms: _314  and  _316
REMARK  149  A    between atoms: _316  and  _317
REMARK  150  A    between atoms: _316  and  _319
REMARK  151  A    between atoms: _319  and  _320
REMARK  152  A    between atoms: _325  and  _327
REMARK  153  A    between atoms: _327  and  _328
REMARK  154  A    between atoms: _327  and  _330
REMARK  155  A    between atoms: _330  and  _331
REMARK  156  A    between atoms: _331  and  _332
REMARK  157  A    between atoms: _332  and  _333
REMARK  158  A    between atoms: _342  and  _344
REMARK  159  A    between atoms: _344  and  _345
REMARK  160  A    between atoms: _344  and  _347
REMARK  161  A    between atoms: _347  and  _348
REMARK  162  A    between atoms: _350  and  _352
REMARK  163  A    between atoms: _352  and  _353
REMARK  164  A    between atoms: _355  and  _357
REMARK  165  A    between atoms: _357  and  _358
REMARK  166  A    between atoms: _357  and  _360
REMARK  167  A    between atoms: _360  and  _361
REMARK  168  A    between atoms: _361  and  _362
REMARK  169  A    between atoms: _365  and  _367
REMARK  170  A    between atoms: _367  and  _368
REMARK  171  A    between atoms: _367  and  _370
REMARK  172  A    between atoms: _370  and  _371
REMARK  173  A    between atoms: _371  and  _372
REMARK  174  A    between atoms: _372  and  _373
REMARK  175  A    between atoms: _373  and  _374
REMARK  176  A    between atoms: _378  and  _380
REMARK  177  A    between atoms: _380  and  _381
REMARK  178  A    between atoms: _380  and  _383
REMARK  179  A    between atoms: _383  and  _384
REMARK  180  A    between atoms: _384  and  _385
REMARK  181  A    between atoms: _385  and  _386
REMARK                            x       y       z     vdW  Elec       q    Type
REMARK                         _______ _______ _______ _____ _____    ______ ____
ROOT
ATOM      1  CA  ARG A   3       9.565  33.055  35.499  0.00  0.00    +0.149 C 
ENDROOT
BRANCH   1   2
ATOM      2  C   ARG A   3       8.600  32.101  34.774  0.00  0.00    +0.241 C 
ATOM      3  N   SER A   4       8.448  30.897  35.303  0.00  0.00    -0.295 N 
ATOM      4  H   SER A   4       8.960  30.637  36.170  0.00  0.00    +0.150 HD
ATOM      5  O   ARG A   3       7.926  32.477  33.813  0.00  0.00    -0.273 OA
BRANCH   3   6
ATOM      6  CA  SER A   4       7.563  29.943  34.664  0.00  0.00    +0.178 C 
BRANCH   6   7
ATOM      7  C   SER A   4       6.087  30.436  34.799  0.00  0.00    +0.243 C 
ATOM      8  N   GLY A   5       5.815  31.291  35.808  0.00  0.00    -0.295 N 
ATOM      9  H   GLY A   5       6.560  31.516  36.498  0.00  0.00    +0.150 HD
ATOM     10  O   SER A   4       5.241  30.054  33.999  0.00  0.00    -0.273 OA
BRANCH   8  11
ATOM     11  CA  GLY A   5       4.500  31.907  35.954  0.00  0.00    +0.176 C 
BRANCH  11  12
ATOM     12  C   GLY A   5       4.726  33.341  35.480  0.00  0.00    +0.243 C 
ATOM     13  O   GLY A   5       5.400  34.133  36.159  0.00  0.00    -0.273 OA
ATOM     14  N   GLU A   6       4.234  33.625  34.284  0.00  0.00    -0.298 N 
ATOM     15  H   GLU A   6       3.739  32.888  33.743  0.00  0.00    +0.150 HD
BRANCH  14  16
ATOM     16  CA  GLU A   6       4.379  34.963  33.717  0.00  0.00    +0.137 C 
BRANCH  16  17
ATOM     17  C   GLU A   6       3.083  35.664  33.520  0.00  0.00    +0.227 C 
ATOM     18  O   GLU A   6       2.010  35.091  33.769  0.00  0.00    -0.286 OA
ENDBRANCH  16  17
BRANCH  16  19
ATOM     19  CB  GLU A   6       5.124  34.867  32.373  0.00  0.00    +0.039 C 
BRANCH  19  20
ATOM     20  CG  GLU A   6       6.592  35.003  32.525  0.00  0.00    +0.116 C 
BRANCH  20  21
ATOM     21  CD  GLU A   6       7.048  36.376  33.081  0.00  0.00    +0.365 C 
ATOM     22  OE2 GLU A   6       8.182  36.455  33.633  0.00  0.00    -0.246 OA
ATOM     23  OE1 GLU A   6       6.228  37.339  32.939  0.00  0.00    -0.246 OA
ENDBRANCH  20  21
ENDBRANCH  19  20
ENDBRANCH  16  19
ENDBRANCH  14  16
ENDBRANCH  11  12
ENDBRANCH   8  11
ENDBRANCH   6   7
BRANCH   6  24
ATOM     24  CB  SER A   4       7.742  28.551  35.275  0.00  0.00    +0.166 C 
BRANCH  24  25
ATOM     25  OG  SER A   4       7.463  28.553  36.684  0.00  0.00    -0.380 OA
ATOM     26  H   SER A   4       8.081  29.177  37.141  0.00  0.00    +0.211 HD
ENDBRANCH  24  25
ENDBRANCH   6  24
ENDBRANCH   3   6
ENDBRANCH   1   2
BRANCH   1  28
ATOM     27  C   HIS A   2      11.085  34.345  34.105  0.00  0.00    +0.241 C 
ATOM     28  N   ARG A   3       9.857  34.204  34.609  0.00  0.00    -0.297 N 
ATOM     29  H   ARG A   3       9.113  34.893  34.380  0.00  0.00    +0.150 HD
ATOM     30  O   HIS A   2      12.125  33.831  34.564  0.00  0.00    -0.273 OA
BRANCH  27  31
ATOM     31  CA  HIS A   2      11.154  35.249  32.861  0.00  0.00    +0.155 C 
BRANCH  31  34
ATOM     32  C   SER A   1      13.460  36.021  32.976  0.00  0.00    +0.241 C 
ATOM     33  O   SER A   1      13.277  36.819  33.883  0.00  0.00    -0.274 OA
ATOM     34  N   HIS A   2      12.517  35.333  32.376  0.00  0.00    -0.297 N 
ATOM     35  H   HIS A   2      12.761  34.820  31.505  0.00  0.00    +0.150 HD
BRANCH  32  36
ATOM     36  CA  SER A   1      14.870  35.657  32.526  0.00  0.00    +0.174 C 
BRANCH  36  37
ATOM     37  N   SER A   1      15.793  36.766  32.546  0.00  0.00    -0.236 NA
ATOM     38  H   SER A   1      15.839  37.392  33.375  0.00  0.00    +0.142 HD
ENDBRANCH  36  37
BRANCH  36  39
ATOM     39  CB  SER A   1      15.393  34.559  33.455  0.00  0.00    +0.163 C 
BRANCH  39  40
ATOM     40  OG  SER A   1      14.538  33.426  33.480  0.00  0.00    -0.380 OA
ATOM     41  H   SER A   1      13.641  33.698  33.799  0.00  0.00    +0.211 HD
ENDBRANCH  39  40
ENDBRANCH  36  39
ENDBRANCH  32  36
ENDBRANCH  31  34
BRANCH  31  42
ATOM     42  CB  HIS A   2      10.272  34.680  31.757  0.00  0.00    +0.076 C 
BRANCH  42  43
ATOM     43  CG  HIS A   2      10.603  33.272  31.362  0.00  0.00    +0.082 A 
ATOM     44  CD2 HIS A   2      11.681  32.489  31.642  0.00  0.00    +0.115 A 
ATOM     45  NE2 HIS A   2      11.487  31.292  30.993  0.00  0.00    -0.221 NA
ATOM     46  CE1 HIS A   2      10.321  31.328  30.365  0.00  0.00    +0.199 A 
ATOM     47  ND1 HIS A   2       9.774  32.520  30.540  0.00  0.00    -0.227 NA
ENDBRANCH  42  43
ENDBRANCH  31  42
ENDBRANCH  27  31
ENDBRANCH   1  28
BRANCH   1  48
ATOM     48  CB  ARG A   3       8.928  33.483  36.832  0.00  0.00    +0.033 C 
BRANCH  48  49
ATOM     49  CG  ARG A   3       9.666  34.526  37.621  0.00  0.00    +0.045 C 
BRANCH  49  50
ATOM     50  CD  ARG A   3      11.070  34.031  37.876  0.00  0.00    +0.174 C 
BRANCH  50  51
ATOM     51  NE  ARG A   3      11.244  32.742  38.578  0.00  0.00    -0.265 N 
ATOM     52  CZ  ARG A   3      11.599  32.608  39.861  0.00  0.00    +0.342 C 
ATOM     53  NH2 ARG A   3      11.734  33.673  40.665  0.00  0.00    -0.292 N 
ATOM     54 HH21 ARG A   3      12.011  33.542  41.659  0.00  0.00    +0.255 HD
ATOM     55 HH22 ARG A   3      11.562  34.629  40.295  0.00  0.00    +0.255 HD
ATOM     56  NH1 ARG A   3      11.809  31.403  40.359  0.00  0.00    -0.292 N 
ATOM     57 HH11 ARG A   3      12.085  31.293  41.356  0.00  0.00    +0.255 HD
ATOM     58 HH12 ARG A   3      11.698  30.564  39.755  0.00  0.00    +0.255 HD
ATOM     59  HE  ARG A   3      11.078  31.872  38.033  0.00  0.00    +0.259 HD
ENDBRANCH  50  51
ENDBRANCH  49  50
ENDBRANCH  48  49
ENDBRANCH   1  48
TORSDOF 25
REMARK  Name = ../refined-set-2016/2ptz/2ptz_pocket.pdb
REMARK  181 active torsions:
REMARK  status: ('A' for Active; 'I' for Inactive)
REMARK    1  A    between atoms: _1  and  _3
REMARK    2  A    between atoms: _3  and  _4
REMARK    3  A    between atoms: _3  and  _6
REMARK    4  A    between atoms: _6  and  _7
REMARK    5  A    between atoms: _7  and  _8
REMARK    6  A    between atoms: _8  and  _9
REMARK    7  A    between atoms: _19  and  _20
REMARK    8  A    between atoms: _25  and  _27
REMARK    9  A    between atoms: _27  and  _28
REMARK   10  A    between atoms: _27  and  _30
REMARK   11  A    between atoms: _30  and  _31
REMARK   12  A    between atoms: _33  and  _35
REMARK   13  A    between atoms: _35  and  _36
REMARK   14  A    between atoms: _38  and  _40
REMARK   15  A    between atoms: _40  and  _41
REMARK   16  A    between atoms: _44  and  _46
REMARK   17  A    between atoms: _46  and  _47
REMARK   18  A    between atoms: _46  and  _49
REMARK   19  A    between atoms: _47  and  _48
REMARK   20  A    between atoms: _47  and  _52
REMARK   21  A    between atoms: _48  and  ZN_396
REMARK   22  A    between atoms: _49  and  _50
REMARK   23  A    between atoms: _52  and  _54
REMARK   24  A    between atoms: _54  and  _55
REMARK   25  A    between atoms: _54  and  _57
REMARK   26  A    between atoms: _57  and  _58
REMARK   27  A    between atoms: _61  and  _63
REMARK   28  A    between atoms: _63  and  _64
REMARK   29  A    between atoms: _66  and  _68
REMARK   30  A    between atoms: _68  and  _69
REMARK   31  A    between atoms: _68  and  _71
REMARK   32  A    between atoms: _71  and  _72
REMARK   33  A    between atoms: _72  and  _73
REMARK   34  A    between atoms: _76  and  _78
REMARK   35  A    between atoms: _78  and  _79
REMARK   36  A    between atoms: _78  and  _81
REMARK   37  A    between atoms: _81  and  _82
REMARK   38  A    between atoms: _87  and  _89
REMARK   39  A    between atoms: _89  and  _90
REMARK   40  A    between atoms: _92  and  _94
REMARK   41  A    between atoms: _94  and  _95
REMARK   42  A    between atoms: _94  and  _97
REMARK   43  A    between atoms: _97  and  _98
REMARK   44  A    between atoms: _98  and  _99
REMARK   45  A    between atoms: _99  and  _100
REMARK   46  A    between atoms: _100  and  _101
REMARK   47  A    between atoms: _105  and  _107
REMARK   48  A    between atoms: _107  and  _108
REMARK   49  A    between atoms: _107  and  _110
REMARK   50  A    between atoms: _110  and  _111
REMARK   51  A    between atoms: _111  and  _112
REMARK   52  A    between atoms: _117  and  _119
REMARK   53  A    between atoms: _119  and  _120
REMARK   54  A    between atoms: _119  and  _122
REMARK   55  A    between atoms: _122  and  _123
REMARK   56  A    between atoms: _123  and  _124
REMARK   57  A    between atoms: _127  and  _129
REMARK   58  A    between atoms: _129  and  _130
REMARK   59  A    between atoms: _129  and  _132
REMARK   60  A    between atoms: _132  and  _133
REMARK   61  A    between atoms: _133  and  _134
REMARK   62  A    between atoms: _136  and  _138
REMARK   63  A    between atoms: _138  and  _139
REMARK   64  A    between atoms: _138  and  _141
REMARK   65  A    between atoms: _141  and  _142
REMARK   66  A    between atoms: _145  and  _147
REMARK   67  A    between atoms: _147  and  _148
REMARK   68  A    between atoms: _147  and  _150
REMARK   69  A    between atoms: _150  and  _151
REMARK   70  A    between atoms: _151  and  _152
REMARK   71  A    between atoms: _155  and  _157
REMARK   72  A    between atoms: _157  and  _158
REMARK   73  A    between atoms: _157  and  _160
REMARK   74  A    between atoms: _160  and  _161
REMARK   75  A    between atoms: _161  and  _163
REMARK   76  A    between atoms: _163  and  ZN_395
REMARK   77  A    between atoms: _164  and  _166
REMARK   78  A    between atoms: _166  and  _167
REMARK   79  A    between atoms: _166  and  _169
REMARK   80  A    between atoms: _171  and  _173
REMARK   81  A    between atoms: _173  and  _174
REMARK   82  A    between atoms: _177  and  _179
REMARK   83  A    between atoms: _179  and  _180
REMARK   84  A    between atoms: _183  and  _185
REMARK   85  A    between atoms: _185  and  _186
REMARK   86  A    between atoms: _185  and  _188
REMARK   87  A    between atoms: _188  and  _189
REMARK   88  A    between atoms: _189  and  _190
REMARK   89  A    between atoms: _193  and  _195
REMARK   90  A    between atoms: _195  and  _196
REMARK   91  A    between atoms: _195  and  _198
REMARK   92  A    between atoms: _198  and  _199
REMARK   93  A    between atoms: _199  and  _200
REMARK   94  A    between atoms: _200  and  _202
REMARK   95  A    between atoms: _202  and  ZN_395
REMARK   96  A    between atoms: _203  and  _205
REMARK   97  A    between atoms: _205  and  _206
REMARK   98  A    between atoms: _205  and  _208
REMARK   99  A    between atoms: _208  and  _209
REMARK  100  A    between atoms: _212  and  _214
REMARK  101  A    between atoms: _214  and  _215
REMARK  102  A    between atoms: _214  and  _217
REMARK  103  A    between atoms: _220  and  _222
REMARK  104  A    between atoms: _222  and  _223
REMARK  105  A    between atoms: _225  and  _227
REMARK  106  A    between atoms: _227  and  _228
REMARK  107  A    between atoms: _227  and  _230
REMARK  108  A    between atoms: _230  and  _231
REMARK  109  A    between atoms: _231  and  _233
REMARK  110  A    between atoms: _233  and  ZN_395
REMARK  111  A    between atoms: _234  and  _236
REMARK  112  A    between atoms: _236  and  _237
REMARK  113  A    between atoms: _236  and  _239
REMARK  114  A    between atoms: _239  and  _240
REMARK  115  A    between atoms: _243  and  _245
REMARK  116  A    between atoms: _245  and  _246
REMARK  117  A    between atoms: _245  and  _248
REMARK  118  A    between atoms: _248  and  _249
REMARK  119  A    between atoms: _252  and  _254
REMARK  120  A    between atoms: _254  and  _255
REMARK  121  A    between atoms: _254  and  _257
REMARK  122  A    between atoms: _257  and  _258
REMARK  123  A    between atoms: _261  and  _263
REMARK  124  A    between atoms: _263  and  _264
REMARK  125  A    between atoms: _263  and  _266
REMARK  126  A    between atoms: _266  and  _267
REMARK  127  A    between atoms: _267  and  _268
REMARK  128  A    between atoms: _268  and  _269
REMARK  129  A    between atoms: _269  and  _270
REMARK  130  A    between atoms: _274  and  _276
REMARK  131  A    between atoms: _276  and  _277
REMARK  132  A    between atoms: _276  and  _279
REMARK  133  A    between atoms: _279  and  _280
REMARK  134  A    between atoms: _285  and  _287
REMARK  135  A    between atoms: _287  and  _288
REMARK  136  A    between atoms: _287  and  _290
REMARK  137  A    between atoms: _290  and  _291
REMARK  138  A    between atoms: _291  and  _292
REMARK  139  A    between atoms: _297  and  _299
REMARK  140  A    between atoms: _299  and  _300
REMARK  141  A    between atoms: _299  and  _302
REMARK  142  A    between atoms: _302  and  _303
REMARK  143  A    between atoms: _303  and  _304
REMARK  144  A    between atoms: _306  and  _308
REMARK  145  A    between atoms: _308  and  _309
REMARK  146  A    between atoms: _308  and  _311
REMARK  147  A    between atoms: _311  and  _312
REMARK  148  A    between atoms: _314  and  _316
REMARK  149  A    between atoms: _316  and  _317
REMARK  150  A    between atoms: _316  and  _319
REMARK  151  A    between atoms: _319  and  _320
REMARK  152  A    between atoms: _325  and  _327
REMARK  153  A    between atoms: _327  and  _328
REMARK  154  A    between atoms: _327  and  _330
REMARK  155  A    between atoms: _330  and  _331
REMARK  156  A    between atoms: _331  and  _332
REMARK  157  A    between atoms: _332  and  _333
REMARK  158  A    between atoms: _342  and  _344
REMARK  159  A    between atoms: _344  and  _345
REMARK  160  A    between atoms: _344  and  _347
REMARK  161  A    between atoms: _347  and  _348
REMARK  162  A    between atoms: _350  and  _352
REMARK  163  A    between atoms: _352  and  _353
REMARK  164  A    between atoms: _355  and  _357
REMARK  165  A    between atoms: _357  and  _358
REMARK  166  A    between atoms: _357  and  _360
REMARK  167  A    between atoms: _360  and  _361
REMARK  168  A    between atoms: _361  and  _362
REMARK  169  A    between atoms: _365  and  _367
REMARK  170  A    between atoms: _367  and  _368
REMARK  171  A    between atoms: _367  and  _370
REMARK  172  A    between atoms: _370  and  _371
REMARK  173  A    between atoms: _371  and  _372
REMARK  174  A    between atoms: _372  and  _373
REMARK  175  A    between atoms: _373  and  _374
REMARK  176  A    between atoms: _378  and  _380
REMARK  177  A    between atoms: _380  and  _381
REMARK  178  A    between atoms: _380  and  _383
REMARK  179  A    between atoms: _383  and  _384
REMARK  180  A    between atoms: _384  and  _385
REMARK  181  A    between atoms: _385  and  _386
REMARK                            x       y       z     vdW  Elec       q    Type
REMARK                         _______ _______ _______ _____ _____    ______ ____
ROOT
ATOM      1  CG  LYS A   1      15.583  31.913  30.230  0.00  0.00    -0.000 C 
ENDROOT
BRANCH   1   2
ATOM      2  CB  LYS A   1      15.613  32.054  28.820  0.00  0.00    +0.025 C 
BRANCH   2   3
ATOM      3  CA  LYS A   1      15.137  33.392  28.207  0.00  0.00    +0.133 C 
BRANCH   3   4
ATOM      4  N   LYS A   1      16.047  34.508  28.304  0.00  0.00    -0.239 NA
ATOM      5  H   LYS A   1      16.214  34.980  29.216  0.00  0.00    +0.142 HD
ENDBRANCH   3   4
BRANCH   3   6
ATOM      6  C   LYS A   1      13.778  33.827  28.670  0.00  0.00    +0.224 C 
ATOM      7  O   LYS A   1      13.565  34.358  29.771  0.00  0.00    -0.287 OA
ENDBRANCH   3   6
ENDBRANCH   2   3
ENDBRANCH   1   2
BRANCH   1   8
ATOM      8  CD  LYS A   1      15.955  30.453  30.732  0.00  0.00    -0.024 C 
BRANCH   8   9
ATOM      9  CE  LYS A   1      15.389  30.419  32.167  0.00  0.00    -0.086 C 
BRANCH   9  10
ATOM     10  NZ  LYS A   1      15.809  29.193  32.952  0.00  0.00    +0.380 N 
ATOM     11  HZ1 LYS A   1      15.395  29.234  33.905  0.00  0.00    -0.089 HD
ATOM     12  HZ2 LYS A   1      16.846  29.168  33.025  0.00  0.00    -0.089 HD
ATOM     13  HZ3 LYS A   1      15.474  28.338  32.463  0.00  0.00    -0.089 HD
ENDBRANCH   9  10
ENDBRANCH   8   9
ENDBRANCH   1   8
TORSDOF 7
REMARK  Name = ../refined-set-2016/2ptz/2ptz_pocket.pdb
REMARK  181 active torsions:
REMARK  status: ('A' for Active; 'I' for Inactive)
REMARK    1  A    between atoms: _1  and  _3
REMARK    2  A    between atoms: _3  and  _4
REMARK    3  A    between atoms: _3  and  _6
REMARK    4  A    between atoms: _6  and  _7
REMARK    5  A    between atoms: _7  and  _8
REMARK    6  A    between atoms: _8  and  _9
REMARK    7  A    between atoms: _19  and  _20
REMARK    8  A    between atoms: _25  and  _27
REMARK    9  A    between atoms: _27  and  _28
REMARK   10  A    between atoms: _27  and  _30
REMARK   11  A    between atoms: _30  and  _31
REMARK   12  A    between atoms: _33  and  _35
REMARK   13  A    between atoms: _35  and  _36
REMARK   14  A    between atoms: _38  and  _40
REMARK   15  A    between atoms: _40  and  _41
REMARK   16  A    between atoms: _44  and  _46
REMARK   17  A    between atoms: _46  and  _47
REMARK   18  A    between atoms: _46  and  _49
REMARK   19  A    between atoms: _47  and  _48
REMARK   20  A    between atoms: _47  and  _52
REMARK   21  A    between atoms: _48  and  ZN_396
REMARK   22  A    between atoms: _49  and  _50
REMARK   23  A    between atoms: _52  and  _54
REMARK   24  A    between atoms: _54  and  _55
REMARK   25  A    between atoms: _54  and  _57
REMARK   26  A    between atoms: _57  and  _58
REMARK   27  A    between atoms: _61  and  _63
REMARK   28  A    between atoms: _63  and  _64
REMARK   29  A    between atoms: _66  and  _68
REMARK   30  A    between atoms: _68  and  _69
REMARK   31  A    between atoms: _68  and  _71
REMARK   32  A    between atoms: _71  and  _72
REMARK   33  A    between atoms: _72  and  _73
REMARK   34  A    between atoms: _76  and  _78
REMARK   35  A    between atoms: _78  and  _79
REMARK   36  A    between atoms: _78  and  _81
REMARK   37  A    between atoms: _81  and  _82
REMARK   38  A    between atoms: _87  and  _89
REMARK   39  A    between atoms: _89  and  _90
REMARK   40  A    between atoms: _92  and  _94
REMARK   41  A    between atoms: _94  and  _95
REMARK   42  A    between atoms: _94  and  _97
REMARK   43  A    between atoms: _97  and  _98
REMARK   44  A    between atoms: _98  and  _99
REMARK   45  A    between atoms: _99  and  _100
REMARK   46  A    between atoms: _100  and  _101
REMARK   47  A    between atoms: _105  and  _107
REMARK   48  A    between atoms: _107  and  _108
REMARK   49  A    between atoms: _107  and  _110
REMARK   50  A    between atoms: _110  and  _111
REMARK   51  A    between atoms: _111  and  _112
REMARK   52  A    between atoms: _117  and  _119
REMARK   53  A    between atoms: _119  and  _120
REMARK   54  A    between atoms: _119  and  _122
REMARK   55  A    between atoms: _122  and  _123
REMARK   56  A    between atoms: _123  and  _124
REMARK   57  A    between atoms: _127  and  _129
REMARK   58  A    between atoms: _129  and  _130
REMARK   59  A    between atoms: _129  and  _132
REMARK   60  A    between atoms: _132  and  _133
REMARK   61  A    between atoms: _133  and  _134
REMARK   62  A    between atoms: _136  and  _138
REMARK   63  A    between atoms: _138  and  _139
REMARK   64  A    between atoms: _138  and  _141
REMARK   65  A    between atoms: _141  and  _142
REMARK   66  A    between atoms: _145  and  _147
REMARK   67  A    between atoms: _147  and  _148
REMARK   68  A    between atoms: _147  and  _150
REMARK   69  A    between atoms: _150  and  _151
REMARK   70  A    between atoms: _151  and  _152
REMARK   71  A    between atoms: _155  and  _157
REMARK   72  A    between atoms: _157  and  _158
REMARK   73  A    between atoms: _157  and  _160
REMARK   74  A    between atoms: _160  and  _161
REMARK   75  A    between atoms: _161  and  _163
REMARK   76  A    between atoms: _163  and  ZN_395
REMARK   77  A    between atoms: _164  and  _166
REMARK   78  A    between atoms: _166  and  _167
REMARK   79  A    between atoms: _166  and  _169
REMARK   80  A    between atoms: _171  and  _173
REMARK   81  A    between atoms: _173  and  _174
REMARK   82  A    between atoms: _177  and  _179
REMARK   83  A    between atoms: _179  and  _180
REMARK   84  A    between atoms: _183  and  _185
REMARK   85  A    between atoms: _185  and  _186
REMARK   86  A    between atoms: _185  and  _188
REMARK   87  A    between atoms: _188  and  _189
REMARK   88  A    between atoms: _189  and  _190
REMARK   89  A    between atoms: _193  and  _195
REMARK   90  A    between atoms: _195  and  _196
REMARK   91  A    between atoms: _195  and  _198
REMARK   92  A    between atoms: _198  and  _199
REMARK   93  A    between atoms: _199  and  _200
REMARK   94  A    between atoms: _200  and  _202
REMARK   95  A    between atoms: _202  and  ZN_395
REMARK   96  A    between atoms: _203  and  _205
REMARK   97  A    between atoms: _205  and  _206
REMARK   98  A    between atoms: _205  and  _208
REMARK   99  A    between atoms: _208  and  _209
REMARK  100  A    between atoms: _212  and  _214
REMARK  101  A    between atoms: _214  and  _215
REMARK  102  A    between atoms: _214  and  _217
REMARK  103  A    between atoms: _220  and  _222
REMARK  104  A    between atoms: _222  and  _223
REMARK  105  A    between atoms: _225  and  _227
REMARK  106  A    between atoms: _227  and  _228
REMARK  107  A    between atoms: _227  and  _230
REMARK  108  A    between atoms: _230  and  _231
REMARK  109  A    between atoms: _231  and  _233
REMARK  110  A    between atoms: _233  and  ZN_395
REMARK  111  A    between atoms: _234  and  _236
REMARK  112  A    between atoms: _236  and  _237
REMARK  113  A    between atoms: _236  and  _239
REMARK  114  A    between atoms: _239  and  _240
REMARK  115  A    between atoms: _243  and  _245
REMARK  116  A    between atoms: _245  and  _246
REMARK  117  A    between atoms: _245  and  _248
REMARK  118  A    between atoms: _248  and  _249
REMARK  119  A    between atoms: _252  and  _254
REMARK  120  A    between atoms: _254  and  _255
REMARK  121  A    between atoms: _254  and  _257
REMARK  122  A    between atoms: _257  and  _258
REMARK  123  A    between atoms: _261  and  _263
REMARK  124  A    between atoms: _263  and  _264
REMARK  125  A    between atoms: _263  and  _266
REMARK  126  A    between atoms: _266  and  _267
REMARK  127  A    between atoms: _267  and  _268
REMARK  128  A    between atoms: _268  and  _269
REMARK  129  A    between atoms: _269  and  _270
REMARK  130  A    between atoms: _274  and  _276
REMARK  131  A    between atoms: _276  and  _277
REMARK  132  A    between atoms: _276  and  _279
REMARK  133  A    between atoms: _279  and  _280
REMARK  134  A    between atoms: _285  and  _287
REMARK  135  A    between atoms: _287  and  _288
REMARK  136  A    between atoms: _287  and  _290
REMARK  137  A    between atoms: _290  and  _291
REMARK  138  A    between atoms: _291  and  _292
REMARK  139  A    between atoms: _297  and  _299
REMARK  140  A    between atoms: _299  and  _300
REMARK  141  A    between atoms: _299  and  _302
REMARK  142  A    between atoms: _302  and  _303
REMARK  143  A    between atoms: _303  and  _304
REMARK  144  A    between atoms: _306  and  _308
REMARK  145  A    between atoms: _308  and  _309
REMARK  146  A    between atoms: _308  and  _311
REMARK  147  A    between atoms: _311  and  _312
REMARK  148  A    between atoms: _314  and  _316
REMARK  149  A    between atoms: _316  and  _317
REMARK  150  A    between atoms: _316  and  _319
REMARK  151  A    between atoms: _319  and  _320
REMARK  152  A    between atoms: _325  and  _327
REMARK  153  A    between atoms: _327  and  _328
REMARK  154  A    between atoms: _327  and  _330
REMARK  155  A    between atoms: _330  and  _331
REMARK  156  A    between atoms: _331  and  _332
REMARK  157  A    between atoms: _332  and  _333
REMARK  158  A    between atoms: _342  and  _344
REMARK  159  A    between atoms: _344  and  _345
REMARK  160  A    between atoms: _344  and  _347
REMARK  161  A    between atoms: _347  and  _348
REMARK  162  A    between atoms: _350  and  _352
REMARK  163  A    between atoms: _352  and  _353
REMARK  164  A    between atoms: _355  and  _357
REMARK  165  A    between atoms: _357  and  _358
REMARK  166  A    between atoms: _357  and  _360
REMARK  167  A    between atoms: _360  and  _361
REMARK  168  A    between atoms: _361  and  _362
REMARK  169  A    between atoms: _365  and  _367
REMARK  170  A    between atoms: _367  and  _368
REMARK  171  A    between atoms: _367  and  _370
REMARK  172  A    between atoms: _370  and  _371
REMARK  173  A    between atoms: _371  and  _372
REMARK  174  A    between atoms: _372  and  _373
REMARK  175  A    between atoms: _373  and  _374
REMARK  176  A    between atoms: _378  and  _380
REMARK  177  A    between atoms: _380  and  _381
REMARK  178  A    between atoms: _380  and  _383
REMARK  179  A    between atoms: _383  and  _384
REMARK  180  A    between atoms: _384  and  _385
REMARK  181  A    between atoms: _385  and  _386
REMARK                            x       y       z     vdW  Elec       q    Type
REMARK                         _______ _______ _______ _____ _____    ______ ____
ROOT
ATOM      1  NE  ARG A   1       5.768  31.516  29.354  0.00  0.00    -0.265 N 
ATOM      2  CZ  ARG A   1       6.014  31.496  30.663  0.00  0.00    +0.342 C 
ATOM      3  NH2 ARG A   1       5.076  30.968  31.479  0.00  0.00    -0.292 N 
ATOM      4 HH21 ARG A   1       5.238  30.938  32.506  0.00  0.00    +0.255 HD
ATOM      5 HH22 ARG A   1       4.192  30.592  31.080  0.00  0.00    +0.255 HD
ATOM      6  NH1 ARG A   1       7.121  32.030  31.148  0.00  0.00    -0.292 N 
ATOM      7 HH11 ARG A   1       7.303  32.009  32.172  0.00  0.00    +0.255 HD
ATOM      8 HH12 ARG A   1       7.810  32.471  30.506  0.00  0.00    +0.255 HD
ATOM      9  HE  ARG A   1       4.925  31.019  29.002  0.00  0.00    +0.259 HD
ENDROOT
BRANCH   1  10
ATOM     10  CD  ARG A   1       6.618  32.196  28.394  0.00  0.00    +0.174 C 
BRANCH  10  11
ATOM     11  CG  ARG A   1       6.062  31.914  27.002  0.00  0.00    +0.045 C 
BRANCH  11  12
ATOM     12  CB  ARG A   1       6.429  32.971  25.956  0.00  0.00    +0.029 C 
BRANCH  12  13
ATOM     13  CA  ARG A   1       6.109  34.403  26.358  0.00  0.00    +0.133 C 
BRANCH  13  14
ATOM     14  N   ARG A   1       4.741  34.540  26.900  0.00  0.00    -0.239 NA
ATOM     15  H   ARG A   1       3.954  34.011  26.472  0.00  0.00    +0.142 HD
ENDBRANCH  13  14
BRANCH  13  16
ATOM     16  C   ARG A   1       6.234  35.296  25.088  0.00  0.00    +0.224 C 
ATOM     17  O   ARG A   1       7.209  36.094  24.952  0.00  0.00    -0.287 OA
ENDBRANCH  13  16
ENDBRANCH  12  13
ENDBRANCH  11  12
ENDBRANCH  10  11
ENDBRANCH   1  10
TORSDOF 6
REMARK  Name = ../refined-set-2016/2ptz/2ptz_pocket.pdb
REMARK  181 active torsions:
REMARK  status: ('A' for Active; 'I' for Inactive)
REMARK    1  A    between atoms: _1  and  _3
REMARK    2  A    between atoms: _3  and  _4
REMARK    3  A    between atoms: _3  and  _6
REMARK    4  A    between atoms: _6  and  _7
REMARK    5  A    between atoms: _7  and  _8
REMARK    6  A    between atoms: _8  and  _9
REMARK    7  A    between atoms: _19  and  _20
REMARK    8  A    between atoms: _25  and  _27
REMARK    9  A    between atoms: _27  and  _28
REMARK   10  A    between atoms: _27  and  _30
REMARK   11  A    between atoms: _30  and  _31
REMARK   12  A    between atoms: _33  and  _35
REMARK   13  A    between atoms: _35  and  _36
REMARK   14  A    between atoms: _38  and  _40
REMARK   15  A    between atoms: _40  and  _41
REMARK   16  A    between atoms: _44  and  _46
REMARK   17  A    between atoms: _46  and  _47
REMARK   18  A    between atoms: _46  and  _49
REMARK   19  A    between atoms: _47  and  _48
REMARK   20  A    between atoms: _47  and  _52
REMARK   21  A    between atoms: _48  and  ZN_396
REMARK   22  A    between atoms: _49  and  _50
REMARK   23  A    between atoms: _52  and  _54
REMARK   24  A    between atoms: _54  and  _55
REMARK   25  A    between atoms: _54  and  _57
REMARK   26  A    between atoms: _57  and  _58
REMARK   27  A    between atoms: _61  and  _63
REMARK   28  A    between atoms: _63  and  _64
REMARK   29  A    between atoms: _66  and  _68
REMARK   30  A    between atoms: _68  and  _69
REMARK   31  A    between atoms: _68  and  _71
REMARK   32  A    between atoms: _71  and  _72
REMARK   33  A    between atoms: _72  and  _73
REMARK   34  A    between atoms: _76  and  _78
REMARK   35  A    between atoms: _78  and  _79
REMARK   36  A    between atoms: _78  and  _81
REMARK   37  A    between atoms: _81  and  _82
REMARK   38  A    between atoms: _87  and  _89
REMARK   39  A    between atoms: _89  and  _90
REMARK   40  A    between atoms: _92  and  _94
REMARK   41  A    between atoms: _94  and  _95
REMARK   42  A    between atoms: _94  and  _97
REMARK   43  A    between atoms: _97  and  _98
REMARK   44  A    between atoms: _98  and  _99
REMARK   45  A    between atoms: _99  and  _100
REMARK   46  A    between atoms: _100  and  _101
REMARK   47  A    between atoms: _105  and  _107
REMARK   48  A    between atoms: _107  and  _108
REMARK   49  A    between atoms: _107  and  _110
REMARK   50  A    between atoms: _110  and  _111
REMARK   51  A    between atoms: _111  and  _112
REMARK   52  A    between atoms: _117  and  _119
REMARK   53  A    between atoms: _119  and  _120
REMARK   54  A    between atoms: _119  and  _122
REMARK   55  A    between atoms: _122  and  _123
REMARK   56  A    between atoms: _123  and  _124
REMARK   57  A    between atoms: _127  and  _129
REMARK   58  A    between atoms: _129  and  _130
REMARK   59  A    between atoms: _129  and  _132
REMARK   60  A    between atoms: _132  and  _133
REMARK   61  A    between atoms: _133  and  _134
REMARK   62  A    between atoms: _136  and  _138
REMARK   63  A    between atoms: _138  and  _139
REMARK   64  A    between atoms: _138  and  _141
REMARK   65  A    between atoms: _141  and  _142
REMARK   66  A    between atoms: _145  and  _147
REMARK   67  A    between atoms: _147  and  _148
REMARK   68  A    between atoms: _147  and  _150
REMARK   69  A    between atoms: _150  and  _151
REMARK   70  A    between atoms: _151  and  _152
REMARK   71  A    between atoms: _155  and  _157
REMARK   72  A    between atoms: _157  and  _158
REMARK   73  A    between atoms: _157  and  _160
REMARK   74  A    between atoms: _160  and  _161
REMARK   75  A    between atoms: _161  and  _163
REMARK   76  A    between atoms: _163  and  ZN_395
REMARK   77  A    between atoms: _164  and  _166
REMARK   78  A    between atoms: _166  and  _167
REMARK   79  A    between atoms: _166  and  _169
REMARK   80  A    between atoms: _171  and  _173
REMARK   81  A    between atoms: _173  and  _174
REMARK   82  A    between atoms: _177  and  _179
REMARK   83  A    between atoms: _179  and  _180
REMARK   84  A    between atoms: _183  and  _185
REMARK   85  A    between atoms: _185  and  _186
REMARK   86  A    between atoms: _185  and  _188
REMARK   87  A    between atoms: _188  and  _189
REMARK   88  A    between atoms: _189  and  _190
REMARK   89  A    between atoms: _193  and  _195
REMARK   90  A    between atoms: _195  and  _196
REMARK   91  A    between atoms: _195  and  _198
REMARK   92  A    between atoms: _198  and  _199
REMARK   93  A    between atoms: _199  and  _200
REMARK   94  A    between atoms: _200  and  _202
REMARK   95  A    between atoms: _202  and  ZN_395
REMARK   96  A    between atoms: _203  and  _205
REMARK   97  A    between atoms: _205  and  _206
REMARK   98  A    between atoms: _205  and  _208
REMARK   99  A    between atoms: _208  and  _209
REMARK  100  A    between atoms: _212  and  _214
REMARK  101  A    between atoms: _214  and  _215
REMARK  102  A    between atoms: _214  and  _217
REMARK  103  A    between atoms: _220  and  _222
REMARK  104  A    between atoms: _222  and  _223
REMARK  105  A    between atoms: _225  and  _227
REMARK  106  A    between atoms: _227  and  _228
REMARK  107  A    between atoms: _227  and  _230
REMARK  108  A    between atoms: _230  and  _231
REMARK  109  A    between atoms: _231  and  _233
REMARK  110  A    between atoms: _233  and  ZN_395
REMARK  111  A    between atoms: _234  and  _236
REMARK  112  A    between atoms: _236  and  _237
REMARK  113  A    between atoms: _236  and  _239
REMARK  114  A    between atoms: _239  and  _240
REMARK  115  A    between atoms: _243  and  _245
REMARK  116  A    between atoms: _245  and  _246
REMARK  117  A    between atoms: _245  and  _248
REMARK  118  A    between atoms: _248  and  _249
REMARK  119  A    between atoms: _252  and  _254
REMARK  120  A    between atoms: _254  and  _255
REMARK  121  A    between atoms: _254  and  _257
REMARK  122  A    between atoms: _257  and  _258
REMARK  123  A    between atoms: _261  and  _263
REMARK  124  A    between atoms: _263  and  _264
REMARK  125  A    between atoms: _263  and  _266
REMARK  126  A    between atoms: _266  and  _267
REMARK  127  A    between atoms: _267  and  _268
REMARK  128  A    between atoms: _268  and  _269
REMARK  129  A    between atoms: _269  and  _270
REMARK  130  A    between atoms: _274  and  _276
REMARK  131  A    between atoms: _276  and  _277
REMARK  132  A    between atoms: _276  and  _279
REMARK  133  A    between atoms: _279  and  _280
REMARK  134  A    between atoms: _285  and  _287
REMARK  135  A    between atoms: _287  and  _288
REMARK  136  A    between atoms: _287  and  _290
REMARK  137  A    between atoms: _290  and  _291
REMARK  138  A    between atoms: _291  and  _292
REMARK  139  A    between atoms: _297  and  _299
REMARK  140  A    between atoms: _299  and  _300
REMARK  141  A    between atoms: _299  and  _302
REMARK  142  A    between atoms: _302  and  _303
REMARK  143  A    between atoms: _303  and  _304
REMARK  144  A    between atoms: _306  and  _308
REMARK  145  A    between atoms: _308  and  _309
REMARK  146  A    between atoms: _308  and  _311
REMARK  147  A    between atoms: _311  and  _312
REMARK  148  A    between atoms: _314  and  _316
REMARK  149  A    between atoms: _316  and  _317
REMARK  150  A    between atoms: _316  and  _319
REMARK  151  A    between atoms: _319  and  _320
REMARK  152  A    between atoms: _325  and  _327
REMARK  153  A    between atoms: _327  and  _328
REMARK  154  A    between atoms: _327  and  _330
REMARK  155  A    between atoms: _330  and  _331
REMARK  156  A    between atoms: _331  and  _332
REMARK  157  A    between atoms: _332  and  _333
REMARK  158  A    between atoms: _342  and  _344
REMARK  159  A    between atoms: _344  and  _345
REMARK  160  A    between atoms: _344  and  _347
REMARK  161  A    between atoms: _347  and  _348
REMARK  162  A    between atoms: _350  and  _352
REMARK  163  A    between atoms: _352  and  _353
REMARK  164  A    between atoms: _355  and  _357
REMARK  165  A    between atoms: _357  and  _358
REMARK  166  A    between atoms: _357  and  _360
REMARK  167  A    between atoms: _360  and  _361
REMARK  168  A    between atoms: _361  and  _362
REMARK  169  A    between atoms: _365  and  _367
REMARK  170  A    between atoms: _367  and  _368
REMARK  171  A    between atoms: _367  and  _370
REMARK  172  A    between atoms: _370  and  _371
REMARK  173  A    between atoms: _371  and  _372
REMARK  174  A    between atoms: _372  and  _373
REMARK  175  A    between atoms: _373  and  _374
REMARK  176  A    between atoms: _378  and  _380
REMARK  177  A    between atoms: _380  and  _381
REMARK  178  A    between atoms: _380  and  _383
REMARK  179  A    between atoms: _383  and  _384
REMARK  180  A    between atoms: _384  and  _385
REMARK  181  A    between atoms: _385  and  _386
REMARK                            x       y       z     vdW  Elec       q    Type
REMARK                         _______ _______ _______ _____ _____    ______ ____
ROOT
ATOM      1  O   HOH     1      11.775  37.645  37.897  0.00  0.00    +0.000 OA
ENDROOT
TORSDOF 0
REMARK  Name = ../refined-set-2016/2ptz/2ptz_pocket.pdb
REMARK  181 active torsions:
REMARK  status: ('A' for Active; 'I' for Inactive)
REMARK    1  A    between atoms: _1  and  _3
REMARK    2  A    between atoms: _3  and  _4
REMARK    3  A    between atoms: _3  and  _6
REMARK    4  A    between atoms: _6  and  _7
REMARK    5  A    between atoms: _7  and  _8
REMARK    6  A    between atoms: _8  and  _9
REMARK    7  A    between atoms: _19  and  _20
REMARK    8  A    between atoms: _25  and  _27
REMARK    9  A    between atoms: _27  and  _28
REMARK   10  A    between atoms: _27  and  _30
REMARK   11  A    between atoms: _30  and  _31
REMARK   12  A    between atoms: _33  and  _35
REMARK   13  A    between atoms: _35  and  _36
REMARK   14  A    between atoms: _38  and  _40
REMARK   15  A    between atoms: _40  and  _41
REMARK   16  A    between atoms: _44  and  _46
REMARK   17  A    between atoms: _46  and  _47
REMARK   18  A    between atoms: _46  and  _49
REMARK   19  A    between atoms: _47  and  _48
REMARK   20  A    between atoms: _47  and  _52
REMARK   21  A    between atoms: _48  and  ZN_396
REMARK   22  A    between atoms: _49  and  _50
REMARK   23  A    between atoms: _52  and  _54
REMARK   24  A    between atoms: _54  and  _55
REMARK   25  A    between atoms: _54  and  _57
REMARK   26  A    between atoms: _57  and  _58
REMARK   27  A    between atoms: _61  and  _63
REMARK   28  A    between atoms: _63  and  _64
REMARK   29  A    between atoms: _66  and  _68
REMARK   30  A    between atoms: _68  and  _69
REMARK   31  A    between atoms: _68  and  _71
REMARK   32  A    between atoms: _71  and  _72
REMARK   33  A    between atoms: _72  and  _73
REMARK   34  A    between atoms: _76  and  _78
REMARK   35  A    between atoms: _78  and  _79
REMARK   36  A    between atoms: _78  and  _81
REMARK   37  A    between atoms: _81  and  _82
REMARK   38  A    between atoms: _87  and  _89
REMARK   39  A    between atoms: _89  and  _90
REMARK   40  A    between atoms: _92  and  _94
REMARK   41  A    between atoms: _94  and  _95
REMARK   42  A    between atoms: _94  and  _97
REMARK   43  A    between atoms: _97  and  _98
REMARK   44  A    between atoms: _98  and  _99
REMARK   45  A    between atoms: _99  and  _100
REMARK   46  A    between atoms: _100  and  _101
REMARK   47  A    between atoms: _105  and  _107
REMARK   48  A    between atoms: _107  and  _108
REMARK   49  A    between atoms: _107  and  _110
REMARK   50  A    between atoms: _110  and  _111
REMARK   51  A    between atoms: _111  and  _112
REMARK   52  A    between atoms: _117  and  _119
REMARK   53  A    between atoms: _119  and  _120
REMARK   54  A    between atoms: _119  and  _122
REMARK   55  A    between atoms: _122  and  _123
REMARK   56  A    between atoms: _123  and  _124
REMARK   57  A    between atoms: _127  and  _129
REMARK   58  A    between atoms: _129  and  _130
REMARK   59  A    between atoms: _129  and  _132
REMARK   60  A    between atoms: _132  and  _133
REMARK   61  A    between atoms: _133  and  _134
REMARK   62  A    between atoms: _136  and  _138
REMARK   63  A    between atoms: _138  and  _139
REMARK   64  A    between atoms: _138  and  _141
REMARK   65  A    between atoms: _141  and  _142
REMARK   66  A    between atoms: _145  and  _147
REMARK   67  A    between atoms: _147  and  _148
REMARK   68  A    between atoms: _147  and  _150
REMARK   69  A    between atoms: _150  and  _151
REMARK   70  A    between atoms: _151  and  _152
REMARK   71  A    between atoms: _155  and  _157
REMARK   72  A    between atoms: _157  and  _158
REMARK   73  A    between atoms: _157  and  _160
REMARK   74  A    between atoms: _160  and  _161
REMARK   75  A    between atoms: _161  and  _163
REMARK   76  A    between atoms: _163  and  ZN_395
REMARK   77  A    between atoms: _164  and  _166
REMARK   78  A    between atoms: _166  and  _167
REMARK   79  A    between atoms: _166  and  _169
REMARK   80  A    between atoms: _171  and  _173
REMARK   81  A    between atoms: _173  and  _174
REMARK   82  A    between atoms: _177  and  _179
REMARK   83  A    between atoms: _179  and  _180
REMARK   84  A    between atoms: _183  and  _185
REMARK   85  A    between atoms: _185  and  _186
REMARK   86  A    between atoms: _185  and  _188
REMARK   87  A    between atoms: _188  and  _189
REMARK   88  A    between atoms: _189  and  _190
REMARK   89  A    between atoms: _193  and  _195
REMARK   90  A    between atoms: _195  and  _196
REMARK   91  A    between atoms: _195  and  _198
REMARK   92  A    between atoms: _198  and  _199
REMARK   93  A    between atoms: _199  and  _200
REMARK   94  A    between atoms: _200  and  _202
REMARK   95  A    between atoms: _202  and  ZN_395
REMARK   96  A    between atoms: _203  and  _205
REMARK   97  A    between atoms: _205  and  _206
REMARK   98  A    between atoms: _205  and  _208
REMARK   99  A    between atoms: _208  and  _209
REMARK  100  A    between atoms: _212  and  _214
REMARK  101  A    between atoms: _214  and  _215
REMARK  102  A    between atoms: _214  and  _217
REMARK  103  A    between atoms: _220  and  _222
REMARK  104  A    between atoms: _222  and  _223
REMARK  105  A    between atoms: _225  and  _227
REMARK  106  A    between atoms: _227  and  _228
REMARK  107  A    between atoms: _227  and  _230
REMARK  108  A    between atoms: _230  and  _231
REMARK  109  A    between atoms: _231  and  _233
REMARK  110  A    between atoms: _233  and  ZN_395
REMARK  111  A    between atoms: _234  and  _236
REMARK  112  A    between atoms: _236  and  _237
REMARK  113  A    between atoms: _236  and  _239
REMARK  114  A    between atoms: _239  and  _240
REMARK  115  A    between atoms: _243  and  _245
REMARK  116  A    between atoms: _245  and  _246
REMARK  117  A    between atoms: _245  and  _248
REMARK  118  A    between atoms: _248  and  _249
REMARK  119  A    between atoms: _252  and  _254
REMARK  120  A    between atoms: _254  and  _255
REMARK  121  A    between atoms: _254  and  _257
REMARK  122  A    between atoms: _257  and  _258
REMARK  123  A    between atoms: _261  and  _263
REMARK  124  A    between atoms: _263  and  _264
REMARK  125  A    between atoms: _263  and  _266
REMARK  126  A    between atoms: _266  and  _267
REMARK  127  A    between atoms: _267  and  _268
REMARK  128  A    between atoms: _268  and  _269
REMARK  129  A    between atoms: _269  and  _270
REMARK  130  A    between atoms: _274  and  _276
REMARK  131  A    between atoms: _276  and  _277
REMARK  132  A    between atoms: _276  and  _279
REMARK  133  A    between atoms: _279  and  _280
REMARK  134  A    between atoms: _285  and  _287
REMARK  135  A    between atoms: _287  and  _288
REMARK  136  A    between atoms: _287  and  _290
REMARK  137  A    between atoms: _290  and  _291
REMARK  138  A    between atoms: _291  and  _292
REMARK  139  A    between atoms: _297  and  _299
REMARK  140  A    between atoms: _299  and  _300
REMARK  141  A    between atoms: _299  and  _302
REMARK  142  A    between atoms: _302  and  _303
REMARK  143  A    between atoms: _303  and  _304
REMARK  144  A    between atoms: _306  and  _308
REMARK  145  A    between atoms: _308  and  _309
REMARK  146  A    between atoms: _308  and  _311
REMARK  147  A    between atoms: _311  and  _312
REMARK  148  A    between atoms: _314  and  _316
REMARK  149  A    between atoms: _316  and  _317
REMARK  150  A    between atoms: _316  and  _319
REMARK  151  A    between atoms: _319  and  _320
REMARK  152  A    between atoms: _325  and  _327
REMARK  153  A    between atoms: _327  and  _328
REMARK  154  A    between atoms: _327  and  _330
REMARK  155  A    between atoms: _330  and  _331
REMARK  156  A    between atoms: _331  and  _332
REMARK  157  A    between atoms: _332  and  _333
REMARK  158  A    between atoms: _342  and  _344
REMARK  159  A    between atoms: _344  and  _345
REMARK  160  A    between atoms: _344  and  _347
REMARK  161  A    between atoms: _347  and  _348
REMARK  162  A    between atoms: _350  and  _352
REMARK  163  A    between atoms: _352  and  _353
REMARK  164  A    between atoms: _355  and  _357
REMARK  165  A    between atoms: _357  and  _358
REMARK  166  A    between atoms: _357  and  _360
REMARK  167  A    between atoms: _360  and  _361
REMARK  168  A    between atoms: _361  and  _362
REMARK  169  A    between atoms: _365  and  _367
REMARK  170  A    between atoms: _367  and  _368
REMARK  171  A    between atoms: _367  and  _370
REMARK  172  A    between atoms: _370  and  _371
REMARK  173  A    between atoms: _371  and  _372
REMARK  174  A    between atoms: _372  and  _373
REMARK  175  A    between atoms: _373  and  _374
REMARK  176  A    between atoms: _378  and  _380
REMARK  177  A    between atoms: _380  and  _381
REMARK  178  A    between atoms: _380  and  _383
REMARK  179  A    between atoms: _383  and  _384
REMARK  180  A    between atoms: _384  and  _385
REMARK  181  A    between atoms: _385  and  _386
REMARK                            x       y       z     vdW  Elec       q    Type
REMARK                         _______ _______ _______ _____ _____    ______ ____
ROOT
ATOM      1  O   HOH     1      12.254  29.529  33.193  0.00  0.00    +0.000 OA
ENDROOT
TORSDOF 0
REMARK  Name = ../refined-set-2016/2ptz/2ptz_pocket.pdb
REMARK  181 active torsions:
REMARK  status: ('A' for Active; 'I' for Inactive)
REMARK    1  A    between atoms: _1  and  _3
REMARK    2  A    between atoms: _3  and  _4
REMARK    3  A    between atoms: _3  and  _6
REMARK    4  A    between atoms: _6  and  _7
REMARK    5  A    between atoms: _7  and  _8
REMARK    6  A    between atoms: _8  and  _9
REMARK    7  A    between atoms: _19  and  _20
REMARK    8  A    between atoms: _25  and  _27
REMARK    9  A    between atoms: _27  and  _28
REMARK   10  A    between atoms: _27  and  _30
REMARK   11  A    between atoms: _30  and  _31
REMARK   12  A    between atoms: _33  and  _35
REMARK   13  A    between atoms: _35  and  _36
REMARK   14  A    between atoms: _38  and  _40
REMARK   15  A    between atoms: _40  and  _41
REMARK   16  A    between atoms: _44  and  _46
REMARK   17  A    between atoms: _46  and  _47
REMARK   18  A    between atoms: _46  and  _49
REMARK   19  A    between atoms: _47  and  _48
REMARK   20  A    between atoms: _47  and  _52
REMARK   21  A    between atoms: _48  and  ZN_396
REMARK   22  A    between atoms: _49  and  _50
REMARK   23  A    between atoms: _52  and  _54
REMARK   24  A    between atoms: _54  and  _55
REMARK   25  A    between atoms: _54  and  _57
REMARK   26  A    between atoms: _57  and  _58
REMARK   27  A    between atoms: _61  and  _63
REMARK   28  A    between atoms: _63  and  _64
REMARK   29  A    between atoms: _66  and  _68
REMARK   30  A    between atoms: _68  and  _69
REMARK   31  A    between atoms: _68  and  _71
REMARK   32  A    between atoms: _71  and  _72
REMARK   33  A    between atoms: _72  and  _73
REMARK   34  A    between atoms: _76  and  _78
REMARK   35  A    between atoms: _78  and  _79
REMARK   36  A    between atoms: _78  and  _81
REMARK   37  A    between atoms: _81  and  _82
REMARK   38  A    between atoms: _87  and  _89
REMARK   39  A    between atoms: _89  and  _90
REMARK   40  A    between atoms: _92  and  _94
REMARK   41  A    between atoms: _94  and  _95
REMARK   42  A    between atoms: _94  and  _97
REMARK   43  A    between atoms: _97  and  _98
REMARK   44  A    between atoms: _98  and  _99
REMARK   45  A    between atoms: _99  and  _100
REMARK   46  A    between atoms: _100  and  _101
REMARK   47  A    between atoms: _105  and  _107
REMARK   48  A    between atoms: _107  and  _108
REMARK   49  A    between atoms: _107  and  _110
REMARK   50  A    between atoms: _110  and  _111
REMARK   51  A    between atoms: _111  and  _112
REMARK   52  A    between atoms: _117  and  _119
REMARK   53  A    between atoms: _119  and  _120
REMARK   54  A    between atoms: _119  and  _122
REMARK   55  A    between atoms: _122  and  _123
REMARK   56  A    between atoms: _123  and  _124
REMARK   57  A    between atoms: _127  and  _129
REMARK   58  A    between atoms: _129  and  _130
REMARK   59  A    between atoms: _129  and  _132
REMARK   60  A    between atoms: _132  and  _133
REMARK   61  A    between atoms: _133  and  _134
REMARK   62  A    between atoms: _136  and  _138
REMARK   63  A    between atoms: _138  and  _139
REMARK   64  A    between atoms: _138  and  _141
REMARK   65  A    between atoms: _141  and  _142
REMARK   66  A    between atoms: _145  and  _147
REMARK   67  A    between atoms: _147  and  _148
REMARK   68  A    between atoms: _147  and  _150
REMARK   69  A    between atoms: _150  and  _151
REMARK   70  A    between atoms: _151  and  _152
REMARK   71  A    between atoms: _155  and  _157
REMARK   72  A    between atoms: _157  and  _158
REMARK   73  A    between atoms: _157  and  _160
REMARK   74  A    between atoms: _160  and  _161
REMARK   75  A    between atoms: _161  and  _163
REMARK   76  A    between atoms: _163  and  ZN_395
REMARK   77  A    between atoms: _164  and  _166
REMARK   78  A    between atoms: _166  and  _167
REMARK   79  A    between atoms: _166  and  _169
REMARK   80  A    between atoms: _171  and  _173
REMARK   81  A    between atoms: _173  and  _174
REMARK   82  A    between atoms: _177  and  _179
REMARK   83  A    between atoms: _179  and  _180
REMARK   84  A    between atoms: _183  and  _185
REMARK   85  A    between atoms: _185  and  _186
REMARK   86  A    between atoms: _185  and  _188
REMARK   87  A    between atoms: _188  and  _189
REMARK   88  A    between atoms: _189  and  _190
REMARK   89  A    between atoms: _193  and  _195
REMARK   90  A    between atoms: _195  and  _196
REMARK   91  A    between atoms: _195  and  _198
REMARK   92  A    between atoms: _198  and  _199
REMARK   93  A    between atoms: _199  and  _200
REMARK   94  A    between atoms: _200  and  _202
REMARK   95  A    between atoms: _202  and  ZN_395
REMARK   96  A    between atoms: _203  and  _205
REMARK   97  A    between atoms: _205  and  _206
REMARK   98  A    between atoms: _205  and  _208
REMARK   99  A    between atoms: _208  and  _209
REMARK  100  A    between atoms: _212  and  _214
REMARK  101  A    between atoms: _214  and  _215
REMARK  102  A    between atoms: _214  and  _217
REMARK  103  A    between atoms: _220  and  _222
REMARK  104  A    between atoms: _222  and  _223
REMARK  105  A    between atoms: _225  and  _227
REMARK  106  A    between atoms: _227  and  _228
REMARK  107  A    between atoms: _227  and  _230
REMARK  108  A    between atoms: _230  and  _231
REMARK  109  A    between atoms: _231  and  _233
REMARK  110  A    between atoms: _233  and  ZN_395
REMARK  111  A    between atoms: _234  and  _236
REMARK  112  A    between atoms: _236  and  _237
REMARK  113  A    between atoms: _236  and  _239
REMARK  114  A    between atoms: _239  and  _240
REMARK  115  A    between atoms: _243  and  _245
REMARK  116  A    between atoms: _245  and  _246
REMARK  117  A    between atoms: _245  and  _248
REMARK  118  A    between atoms: _248  and  _249
REMARK  119  A    between atoms: _252  and  _254
REMARK  120  A    between atoms: _254  and  _255
REMARK  121  A    between atoms: _254  and  _257
REMARK  122  A    between atoms: _257  and  _258
REMARK  123  A    between atoms: _261  and  _263
REMARK  124  A    between atoms: _263  and  _264
REMARK  125  A    between atoms: _263  and  _266
REMARK  126  A    between atoms: _266  and  _267
REMARK  127  A    between atoms: _267  and  _268
REMARK  128  A    between atoms: _268  and  _269
REMARK  129  A    between atoms: _269  and  _270
REMARK  130  A    between atoms: _274  and  _276
REMARK  131  A    between atoms: _276  and  _277
REMARK  132  A    between atoms: _276  and  _279
REMARK  133  A    between atoms: _279  and  _280
REMARK  134  A    between atoms: _285  and  _287
REMARK  135  A    between atoms: _287  and  _288
REMARK  136  A    between atoms: _287  and  _290
REMARK  137  A    between atoms: _290  and  _291
REMARK  138  A    between atoms: _291  and  _292
REMARK  139  A    between atoms: _297  and  _299
REMARK  140  A    between atoms: _299  and  _300
REMARK  141  A    between atoms: _299  and  _302
REMARK  142  A    between atoms: _302  and  _303
REMARK  143  A    between atoms: _303  and  _304
REMARK  144  A    between atoms: _306  and  _308
REMARK  145  A    between atoms: _308  and  _309
REMARK  146  A    between atoms: _308  and  _311
REMARK  147  A    between atoms: _311  and  _312
REMARK  148  A    between atoms: _314  and  _316
REMARK  149  A    between atoms: _316  and  _317
REMARK  150  A    between atoms: _316  and  _319
REMARK  151  A    between atoms: _319  and  _320
REMARK  152  A    between atoms: _325  and  _327
REMARK  153  A    between atoms: _327  and  _328
REMARK  154  A    between atoms: _327  and  _330
REMARK  155  A    between atoms: _330  and  _331
REMARK  156  A    between atoms: _331  and  _332
REMARK  157  A    between atoms: _332  and  _333
REMARK  158  A    between atoms: _342  and  _344
REMARK  159  A    between atoms: _344  and  _345
REMARK  160  A    between atoms: _344  and  _347
REMARK  161  A    between atoms: _347  and  _348
REMARK  162  A    between atoms: _350  and  _352
REMARK  163  A    between atoms: _352  and  _353
REMARK  164  A    between atoms: _355  and  _357
REMARK  165  A    between atoms: _357  and  _358
REMARK  166  A    between atoms: _357  and  _360
REMARK  167  A    between atoms: _360  and  _361
REMARK  168  A    between atoms: _361  and  _362
REMARK  169  A    between atoms: _365  and  _367
REMARK  170  A    between atoms: _367  and  _368
REMARK  171  A    between atoms: _367  and  _370
REMARK  172  A    between atoms: _370  and  _371
REMARK  173  A    between atoms: _371  and  _372
REMARK  174  A    between atoms: _372  and  _373
REMARK  175  A    between atoms: _373  and  _374
REMARK  176  A    between atoms: _378  and  _380
REMARK  177  A    between atoms: _380  and  _381
REMARK  178  A    between atoms: _380  and  _383
REMARK  179  A    between atoms: _383  and  _384
REMARK  180  A    between atoms: _384  and  _385
REMARK  181  A    between atoms: _385  and  _386
REMARK                            x       y       z     vdW  Elec       q    Type
REMARK                         _______ _______ _______ _____ _____    ______ ____
ROOT
ATOM      1  O   HOH     1       8.278  33.775  42.460  0.00  0.00    +0.000 OA
ENDROOT
TORSDOF 0
REMARK  Name = ../refined-set-2016/2ptz/2ptz_pocket.pdb
REMARK  181 active torsions:
REMARK  status: ('A' for Active; 'I' for Inactive)
REMARK    1  A    between atoms: _1  and  _3
REMARK    2  A    between atoms: _3  and  _4
REMARK    3  A    between atoms: _3  and  _6
REMARK    4  A    between atoms: _6  and  _7
REMARK    5  A    between atoms: _7  and  _8
REMARK    6  A    between atoms: _8  and  _9
REMARK    7  A    between atoms: _19  and  _20
REMARK    8  A    between atoms: _25  and  _27
REMARK    9  A    between atoms: _27  and  _28
REMARK   10  A    between atoms: _27  and  _30
REMARK   11  A    between atoms: _30  and  _31
REMARK   12  A    between atoms: _33  and  _35
REMARK   13  A    between atoms: _35  and  _36
REMARK   14  A    between atoms: _38  and  _40
REMARK   15  A    between atoms: _40  and  _41
REMARK   16  A    between atoms: _44  and  _46
REMARK   17  A    between atoms: _46  and  _47
REMARK   18  A    between atoms: _46  and  _49
REMARK   19  A    between atoms: _47  and  _48
REMARK   20  A    between atoms: _47  and  _52
REMARK   21  A    between atoms: _48  and  ZN_396
REMARK   22  A    between atoms: _49  and  _50
REMARK   23  A    between atoms: _52  and  _54
REMARK   24  A    between atoms: _54  and  _55
REMARK   25  A    between atoms: _54  and  _57
REMARK   26  A    between atoms: _57  and  _58
REMARK   27  A    between atoms: _61  and  _63
REMARK   28  A    between atoms: _63  and  _64
REMARK   29  A    between atoms: _66  and  _68
REMARK   30  A    between atoms: _68  and  _69
REMARK   31  A    between atoms: _68  and  _71
REMARK   32  A    between atoms: _71  and  _72
REMARK   33  A    between atoms: _72  and  _73
REMARK   34  A    between atoms: _76  and  _78
REMARK   35  A    between atoms: _78  and  _79
REMARK   36  A    between atoms: _78  and  _81
REMARK   37  A    between atoms: _81  and  _82
REMARK   38  A    between atoms: _87  and  _89
REMARK   39  A    between atoms: _89  and  _90
REMARK   40  A    between atoms: _92  and  _94
REMARK   41  A    between atoms: _94  and  _95
REMARK   42  A    between atoms: _94  and  _97
REMARK   43  A    between atoms: _97  and  _98
REMARK   44  A    between atoms: _98  and  _99
REMARK   45  A    between atoms: _99  and  _100
REMARK   46  A    between atoms: _100  and  _101
REMARK   47  A    between atoms: _105  and  _107
REMARK   48  A    between atoms: _107  and  _108
REMARK   49  A    between atoms: _107  and  _110
REMARK   50  A    between atoms: _110  and  _111
REMARK   51  A    between atoms: _111  and  _112
REMARK   52  A    between atoms: _117  and  _119
REMARK   53  A    between atoms: _119  and  _120
REMARK   54  A    between atoms: _119  and  _122
REMARK   55  A    between atoms: _122  and  _123
REMARK   56  A    between atoms: _123  and  _124
REMARK   57  A    between atoms: _127  and  _129
REMARK   58  A    between atoms: _129  and  _130
REMARK   59  A    between atoms: _129  and  _132
REMARK   60  A    between atoms: _132  and  _133
REMARK   61  A    between atoms: _133  and  _134
REMARK   62  A    between atoms: _136  and  _138
REMARK   63  A    between atoms: _138  and  _139
REMARK   64  A    between atoms: _138  and  _141
REMARK   65  A    between atoms: _141  and  _142
REMARK   66  A    between atoms: _145  and  _147
REMARK   67  A    between atoms: _147  and  _148
REMARK   68  A    between atoms: _147  and  _150
REMARK   69  A    between atoms: _150  and  _151
REMARK   70  A    between atoms: _151  and  _152
REMARK   71  A    between atoms: _155  and  _157
REMARK   72  A    between atoms: _157  and  _158
REMARK   73  A    between atoms: _157  and  _160
REMARK   74  A    between atoms: _160  and  _161
REMARK   75  A    between atoms: _161  and  _163
REMARK   76  A    between atoms: _163  and  ZN_395
REMARK   77  A    between atoms: _164  and  _166
REMARK   78  A    between atoms: _166  and  _167
REMARK   79  A    between atoms: _166  and  _169
REMARK   80  A    between atoms: _171  and  _173
REMARK   81  A    between atoms: _173  and  _174
REMARK   82  A    between atoms: _177  and  _179
REMARK   83  A    between atoms: _179  and  _180
REMARK   84  A    between atoms: _183  and  _185
REMARK   85  A    between atoms: _185  and  _186
REMARK   86  A    between atoms: _185  and  _188
REMARK   87  A    between atoms: _188  and  _189
REMARK   88  A    between atoms: _189  and  _190
REMARK   89  A    between atoms: _193  and  _195
REMARK   90  A    between atoms: _195  and  _196
REMARK   91  A    between atoms: _195  and  _198
REMARK   92  A    between atoms: _198  and  _199
REMARK   93  A    between atoms: _199  and  _200
REMARK   94  A    between atoms: _200  and  _202
REMARK   95  A    between atoms: _202  and  ZN_395
REMARK   96  A    between atoms: _203  and  _205
REMARK   97  A    between atoms: _205  and  _206
REMARK   98  A    between atoms: _205  and  _208
REMARK   99  A    between atoms: _208  and  _209
REMARK  100  A    between atoms: _212  and  _214
REMARK  101  A    between atoms: _214  and  _215
REMARK  102  A    between atoms: _214  and  _217
REMARK  103  A    between atoms: _220  and  _222
REMARK  104  A    between atoms: _222  and  _223
REMARK  105  A    between atoms: _225  and  _227
REMARK  106  A    between atoms: _227  and  _228
REMARK  107  A    between atoms: _227  and  _230
REMARK  108  A    between atoms: _230  and  _231
REMARK  109  A    between atoms: _231  and  _233
REMARK  110  A    between atoms: _233  and  ZN_395
REMARK  111  A    between atoms: _234  and  _236
REMARK  112  A    between atoms: _236  and  _237
REMARK  113  A    between atoms: _236  and  _239
REMARK  114  A    between atoms: _239  and  _240
REMARK  115  A    between atoms: _243  and  _245
REMARK  116  A    between atoms: _245  and  _246
REMARK  117  A    between atoms: _245  and  _248
REMARK  118  A    between atoms: _248  and  _249
REMARK  119  A    between atoms: _252  and  _254
REMARK  120  A    between atoms: _254  and  _255
REMARK  121  A    between atoms: _254  and  _257
REMARK  122  A    between atoms: _257  and  _258
REMARK  123  A    between atoms: _261  and  _263
REMARK  124  A    between atoms: _263  and  _264
REMARK  125  A    between atoms: _263  and  _266
REMARK  126  A    between atoms: _266  and  _267
REMARK  127  A    between atoms: _267  and  _268
REMARK  128  A    between atoms: _268  and  _269
REMARK  129  A    between atoms: _269  and  _270
REMARK  130  A    between atoms: _274  and  _276
REMARK  131  A    between atoms: _276  and  _277
REMARK  132  A    between atoms: _276  and  _279
REMARK  133  A    between atoms: _279  and  _280
REMARK  134  A    between atoms: _285  and  _287
REMARK  135  A    between atoms: _287  and  _288
REMARK  136  A    between atoms: _287  and  _290
REMARK  137  A    between atoms: _290  and  _291
REMARK  138  A    between atoms: _291  and  _292
REMARK  139  A    between atoms: _297  and  _299
REMARK  140  A    between atoms: _299  and  _300
REMARK  141  A    between atoms: _299  and  _302
REMARK  142  A    between atoms: _302  and  _303
REMARK  143  A    between atoms: _303  and  _304
REMARK  144  A    between atoms: _306  and  _308
REMARK  145  A    between atoms: _308  and  _309
REMARK  146  A    between atoms: _308  and  _311
REMARK  147  A    between atoms: _311  and  _312
REMARK  148  A    between atoms: _314  and  _316
REMARK  149  A    between atoms: _316  and  _317
REMARK  150  A    between atoms: _316  and  _319
REMARK  151  A    between atoms: _319  and  _320
REMARK  152  A    between atoms: _325  and  _327
REMARK  153  A    between atoms: _327  and  _328
REMARK  154  A    between atoms: _327  and  _330
REMARK  155  A    between atoms: _330  and  _331
REMARK  156  A    between atoms: _331  and  _332
REMARK  157  A    between atoms: _332  and  _333
REMARK  158  A    between atoms: _342  and  _344
REMARK  159  A    between atoms: _344  and  _345
REMARK  160  A    between atoms: _344  and  _347
REMARK  161  A    between atoms: _347  and  _348
REMARK  162  A    between atoms: _350  and  _352
REMARK  163  A    between atoms: _352  and  _353
REMARK  164  A    between atoms: _355  and  _357
REMARK  165  A    between atoms: _357  and  _358
REMARK  166  A    between atoms: _357  and  _360
REMARK  167  A    between atoms: _360  and  _361
REMARK  168  A    between atoms: _361  and  _362
REMARK  169  A    between atoms: _365  and  _367
REMARK  170  A    between atoms: _367  and  _368
REMARK  171  A    between atoms: _367  and  _370
REMARK  172  A    between atoms: _370  and  _371
REMARK  173  A    between atoms: _371  and  _372
REMARK  174  A    between atoms: _372  and  _373
REMARK  175  A    between atoms: _373  and  _374
REMARK  176  A    between atoms: _378  and  _380
REMARK  177  A    between atoms: _380  and  _381
REMARK  178  A    between atoms: _380  and  _383
REMARK  179  A    between atoms: _383  and  _384
REMARK  180  A    between atoms: _384  and  _385
REMARK  181  A    between atoms: _385  and  _386
REMARK                            x       y       z     vdW  Elec       q    Type
REMARK                         _______ _______ _______ _____ _____    ______ ____
ROOT
ATOM      1  O   HOH     1      10.171  33.851  44.619  0.00  0.00    +0.000 OA
ENDROOT
TORSDOF 0
REMARK  Name = ../refined-set-2016/2ptz/2ptz_pocket.pdb
REMARK  181 active torsions:
REMARK  status: ('A' for Active; 'I' for Inactive)
REMARK    1  A    between atoms: _1  and  _3
REMARK    2  A    between atoms: _3  and  _4
REMARK    3  A    between atoms: _3  and  _6
REMARK    4  A    between atoms: _6  and  _7
REMARK    5  A    between atoms: _7  and  _8
REMARK    6  A    between atoms: _8  and  _9
REMARK    7  A    between atoms: _19  and  _20
REMARK    8  A    between atoms: _25  and  _27
REMARK    9  A    between atoms: _27  and  _28
REMARK   10  A    between atoms: _27  and  _30
REMARK   11  A    between atoms: _30  and  _31
REMARK   12  A    between atoms: _33  and  _35
REMARK   13  A    between atoms: _35  and  _36
REMARK   14  A    between atoms: _38  and  _40
REMARK   15  A    between atoms: _40  and  _41
REMARK   16  A    between atoms: _44  and  _46
REMARK   17  A    between atoms: _46  and  _47
REMARK   18  A    between atoms: _46  and  _49
REMARK   19  A    between atoms: _47  and  _48
REMARK   20  A    between atoms: _47  and  _52
REMARK   21  A    between atoms: _48  and  ZN_396
REMARK   22  A    between atoms: _49  and  _50
REMARK   23  A    between atoms: _52  and  _54
REMARK   24  A    between atoms: _54  and  _55
REMARK   25  A    between atoms: _54  and  _57
REMARK   26  A    between atoms: _57  and  _58
REMARK   27  A    between atoms: _61  and  _63
REMARK   28  A    between atoms: _63  and  _64
REMARK   29  A    between atoms: _66  and  _68
REMARK   30  A    between atoms: _68  and  _69
REMARK   31  A    between atoms: _68  and  _71
REMARK   32  A    between atoms: _71  and  _72
REMARK   33  A    between atoms: _72  and  _73
REMARK   34  A    between atoms: _76  and  _78
REMARK   35  A    between atoms: _78  and  _79
REMARK   36  A    between atoms: _78  and  _81
REMARK   37  A    between atoms: _81  and  _82
REMARK   38  A    between atoms: _87  and  _89
REMARK   39  A    between atoms: _89  and  _90
REMARK   40  A    between atoms: _92  and  _94
REMARK   41  A    between atoms: _94  and  _95
REMARK   42  A    between atoms: _94  and  _97
REMARK   43  A    between atoms: _97  and  _98
REMARK   44  A    between atoms: _98  and  _99
REMARK   45  A    between atoms: _99  and  _100
REMARK   46  A    between atoms: _100  and  _101
REMARK   47  A    between atoms: _105  and  _107
REMARK   48  A    between atoms: _107  and  _108
REMARK   49  A    between atoms: _107  and  _110
REMARK   50  A    between atoms: _110  and  _111
REMARK   51  A    between atoms: _111  and  _112
REMARK   52  A    between atoms: _117  and  _119
REMARK   53  A    between atoms: _119  and  _120
REMARK   54  A    between atoms: _119  and  _122
REMARK   55  A    between atoms: _122  and  _123
REMARK   56  A    between atoms: _123  and  _124
REMARK   57  A    between atoms: _127  and  _129
REMARK   58  A    between atoms: _129  and  _130
REMARK   59  A    between atoms: _129  and  _132
REMARK   60  A    between atoms: _132  and  _133
REMARK   61  A    between atoms: _133  and  _134
REMARK   62  A    between atoms: _136  and  _138
REMARK   63  A    between atoms: _138  and  _139
REMARK   64  A    between atoms: _138  and  _141
REMARK   65  A    between atoms: _141  and  _142
REMARK   66  A    between atoms: _145  and  _147
REMARK   67  A    between atoms: _147  and  _148
REMARK   68  A    between atoms: _147  and  _150
REMARK   69  A    between atoms: _150  and  _151
REMARK   70  A    between atoms: _151  and  _152
REMARK   71  A    between atoms: _155  and  _157
REMARK   72  A    between atoms: _157  and  _158
REMARK   73  A    between atoms: _157  and  _160
REMARK   74  A    between atoms: _160  and  _161
REMARK   75  A    between atoms: _161  and  _163
REMARK   76  A    between atoms: _163  and  ZN_395
REMARK   77  A    between atoms: _164  and  _166
REMARK   78  A    between atoms: _166  and  _167
REMARK   79  A    between atoms: _166  and  _169
REMARK   80  A    between atoms: _171  and  _173
REMARK   81  A    between atoms: _173  and  _174
REMARK   82  A    between atoms: _177  and  _179
REMARK   83  A    between atoms: _179  and  _180
REMARK   84  A    between atoms: _183  and  _185
REMARK   85  A    between atoms: _185  and  _186
REMARK   86  A    between atoms: _185  and  _188
REMARK   87  A    between atoms: _188  and  _189
REMARK   88  A    between atoms: _189  and  _190
REMARK   89  A    between atoms: _193  and  _195
REMARK   90  A    between atoms: _195  and  _196
REMARK   91  A    between atoms: _195  and  _198
REMARK   92  A    between atoms: _198  and  _199
REMARK   93  A    between atoms: _199  and  _200
REMARK   94  A    between atoms: _200  and  _202
REMARK   95  A    between atoms: _202  and  ZN_395
REMARK   96  A    between atoms: _203  and  _205
REMARK   97  A    between atoms: _205  and  _206
REMARK   98  A    between atoms: _205  and  _208
REMARK   99  A    between atoms: _208  and  _209
REMARK  100  A    between atoms: _212  and  _214
REMARK  101  A    between atoms: _214  and  _215
REMARK  102  A    between atoms: _214  and  _217
REMARK  103  A    between atoms: _220  and  _222
REMARK  104  A    between atoms: _222  and  _223
REMARK  105  A    between atoms: _225  and  _227
REMARK  106  A    between atoms: _227  and  _228
REMARK  107  A    between atoms: _227  and  _230
REMARK  108  A    between atoms: _230  and  _231
REMARK  109  A    between atoms: _231  and  _233
REMARK  110  A    between atoms: _233  and  ZN_395
REMARK  111  A    between atoms: _234  and  _236
REMARK  112  A    between atoms: _236  and  _237
REMARK  113  A    between atoms: _236  and  _239
REMARK  114  A    between atoms: _239  and  _240
REMARK  115  A    between atoms: _243  and  _245
REMARK  116  A    between atoms: _245  and  _246
REMARK  117  A    between atoms: _245  and  _248
REMARK  118  A    between atoms: _248  and  _249
REMARK  119  A    between atoms: _252  and  _254
REMARK  120  A    between atoms: _254  and  _255
REMARK  121  A    between atoms: _254  and  _257
REMARK  122  A    between atoms: _257  and  _258
REMARK  123  A    between atoms: _261  and  _263
REMARK  124  A    between atoms: _263  and  _264
REMARK  125  A    between atoms: _263  and  _266
REMARK  126  A    between atoms: _266  and  _267
REMARK  127  A    between atoms: _267  and  _268
REMARK  128  A    between atoms: _268  and  _269
REMARK  129  A    between atoms: _269  and  _270
REMARK  130  A    between atoms: _274  and  _276
REMARK  131  A    between atoms: _276  and  _277
REMARK  132  A    between atoms: _276  and  _279
REMARK  133  A    between atoms: _279  and  _280
REMARK  134  A    between atoms: _285  and  _287
REMARK  135  A    between atoms: _287  and  _288
REMARK  136  A    between atoms: _287  and  _290
REMARK  137  A    between atoms: _290  and  _291
REMARK  138  A    between atoms: _291  and  _292
REMARK  139  A    between atoms: _297  and  _299
REMARK  140  A    between atoms: _299  and  _300
REMARK  141  A    between atoms: _299  and  _302
REMARK  142  A    between atoms: _302  and  _303
REMARK  143  A    between atoms: _303  and  _304
REMARK  144  A    between atoms: _306  and  _308
REMARK  145  A    between atoms: _308  and  _309
REMARK  146  A    between atoms: _308  and  _311
REMARK  147  A    between atoms: _311  and  _312
REMARK  148  A    between atoms: _314  and  _316
REMARK  149  A    between atoms: _316  and  _317
REMARK  150  A    between atoms: _316  and  _319
REMARK  151  A    between atoms: _319  and  _320
REMARK  152  A    between atoms: _325  and  _327
REMARK  153  A    between atoms: _327  and  _328
REMARK  154  A    between atoms: _327  and  _330
REMARK  155  A    between atoms: _330  and  _331
REMARK  156  A    between atoms: _331  and  _332
REMARK  157  A    between atoms: _332  and  _333
REMARK  158  A    between atoms: _342  and  _344
REMARK  159  A    between atoms: _344  and  _345
REMARK  160  A    between atoms: _344  and  _347
REMARK  161  A    between atoms: _347  and  _348
REMARK  162  A    between atoms: _350  and  _352
REMARK  163  A    between atoms: _352  and  _353
REMARK  164  A    between atoms: _355  and  _357
REMARK  165  A    between atoms: _357  and  _358
REMARK  166  A    between atoms: _357  and  _360
REMARK  167  A    between atoms: _360  and  _361
REMARK  168  A    between atoms: _361  and  _362
REMARK  169  A    between atoms: _365  and  _367
REMARK  170  A    between atoms: _367  and  _368
REMARK  171  A    between atoms: _367  and  _370
REMARK  172  A    between atoms: _370  and  _371
REMARK  173  A    between atoms: _371  and  _372
REMARK  174  A    between atoms: _372  and  _373
REMARK  175  A    between atoms: _373  and  _374
REMARK  176  A    between atoms: _378  and  _380
REMARK  177  A    between atoms: _380  and  _381
REMARK  178  A    between atoms: _380  and  _383
REMARK  179  A    between atoms: _383  and  _384
REMARK  180  A    between atoms: _384  and  _385
REMARK  181  A    between atoms: _385  and  _386
REMARK                            x       y       z     vdW  Elec       q    Type
REMARK                         _______ _______ _______ _____ _____    ______ ____
ROOT
ATOM      1  O   HOH     1      10.437  26.182  33.771  0.00  0.00    +0.000 OA
ENDROOT
TORSDOF 0
REMARK  Name = ../refined-set-2016/2ptz/2ptz_pocket.pdb
REMARK  181 active torsions:
REMARK  status: ('A' for Active; 'I' for Inactive)
REMARK    1  A    between atoms: _1  and  _3
REMARK    2  A    between atoms: _3  and  _4
REMARK    3  A    between atoms: _3  and  _6
REMARK    4  A    between atoms: _6  and  _7
REMARK    5  A    between atoms: _7  and  _8
REMARK    6  A    between atoms: _8  and  _9
REMARK    7  A    between atoms: _19  and  _20
REMARK    8  A    between atoms: _25  and  _27
REMARK    9  A    between atoms: _27  and  _28
REMARK   10  A    between atoms: _27  and  _30
REMARK   11  A    between atoms: _30  and  _31
REMARK   12  A    between atoms: _33  and  _35
REMARK   13  A    between atoms: _35  and  _36
REMARK   14  A    between atoms: _38  and  _40
REMARK   15  A    between atoms: _40  and  _41
REMARK   16  A    between atoms: _44  and  _46
REMARK   17  A    between atoms: _46  and  _47
REMARK   18  A    between atoms: _46  and  _49
REMARK   19  A    between atoms: _47  and  _48
REMARK   20  A    between atoms: _47  and  _52
REMARK   21  A    between atoms: _48  and  ZN_396
REMARK   22  A    between atoms: _49  and  _50
REMARK   23  A    between atoms: _52  and  _54
REMARK   24  A    between atoms: _54  and  _55
REMARK   25  A    between atoms: _54  and  _57
REMARK   26  A    between atoms: _57  and  _58
REMARK   27  A    between atoms: _61  and  _63
REMARK   28  A    between atoms: _63  and  _64
REMARK   29  A    between atoms: _66  and  _68
REMARK   30  A    between atoms: _68  and  _69
REMARK   31  A    between atoms: _68  and  _71
REMARK   32  A    between atoms: _71  and  _72
REMARK   33  A    between atoms: _72  and  _73
REMARK   34  A    between atoms: _76  and  _78
REMARK   35  A    between atoms: _78  and  _79
REMARK   36  A    between atoms: _78  and  _81
REMARK   37  A    between atoms: _81  and  _82
REMARK   38  A    between atoms: _87  and  _89
REMARK   39  A    between atoms: _89  and  _90
REMARK   40  A    between atoms: _92  and  _94
REMARK   41  A    between atoms: _94  and  _95
REMARK   42  A    between atoms: _94  and  _97
REMARK   43  A    between atoms: _97  and  _98
REMARK   44  A    between atoms: _98  and  _99
REMARK   45  A    between atoms: _99  and  _100
REMARK   46  A    between atoms: _100  and  _101
REMARK   47  A    between atoms: _105  and  _107
REMARK   48  A    between atoms: _107  and  _108
REMARK   49  A    between atoms: _107  and  _110
REMARK   50  A    between atoms: _110  and  _111
REMARK   51  A    between atoms: _111  and  _112
REMARK   52  A    between atoms: _117  and  _119
REMARK   53  A    between atoms: _119  and  _120
REMARK   54  A    between atoms: _119  and  _122
REMARK   55  A    between atoms: _122  and  _123
REMARK   56  A    between atoms: _123  and  _124
REMARK   57  A    between atoms: _127  and  _129
REMARK   58  A    between atoms: _129  and  _130
REMARK   59  A    between atoms: _129  and  _132
REMARK   60  A    between atoms: _132  and  _133
REMARK   61  A    between atoms: _133  and  _134
REMARK   62  A    between atoms: _136  and  _138
REMARK   63  A    between atoms: _138  and  _139
REMARK   64  A    between atoms: _138  and  _141
REMARK   65  A    between atoms: _141  and  _142
REMARK   66  A    between atoms: _145  and  _147
REMARK   67  A    between atoms: _147  and  _148
REMARK   68  A    between atoms: _147  and  _150
REMARK   69  A    between atoms: _150  and  _151
REMARK   70  A    between atoms: _151  and  _152
REMARK   71  A    between atoms: _155  and  _157
REMARK   72  A    between atoms: _157  and  _158
REMARK   73  A    between atoms: _157  and  _160
REMARK   74  A    between atoms: _160  and  _161
REMARK   75  A    between atoms: _161  and  _163
REMARK   76  A    between atoms: _163  and  ZN_395
REMARK   77  A    between atoms: _164  and  _166
REMARK   78  A    between atoms: _166  and  _167
REMARK   79  A    between atoms: _166  and  _169
REMARK   80  A    between atoms: _171  and  _173
REMARK   81  A    between atoms: _173  and  _174
REMARK   82  A    between atoms: _177  and  _179
REMARK   83  A    between atoms: _179  and  _180
REMARK   84  A    between atoms: _183  and  _185
REMARK   85  A    between atoms: _185  and  _186
REMARK   86  A    between atoms: _185  and  _188
REMARK   87  A    between atoms: _188  and  _189
REMARK   88  A    between atoms: _189  and  _190
REMARK   89  A    between atoms: _193  and  _195
REMARK   90  A    between atoms: _195  and  _196
REMARK   91  A    between atoms: _195  and  _198
REMARK   92  A    between atoms: _198  and  _199
REMARK   93  A    between atoms: _199  and  _200
REMARK   94  A    between atoms: _200  and  _202
REMARK   95  A    between atoms: _202  and  ZN_395
REMARK   96  A    between atoms: _203  and  _205
REMARK   97  A    between atoms: _205  and  _206
REMARK   98  A    between atoms: _205  and  _208
REMARK   99  A    between atoms: _208  and  _209
REMARK  100  A    between atoms: _212  and  _214
REMARK  101  A    between atoms: _214  and  _215
REMARK  102  A    between atoms: _214  and  _217
REMARK  103  A    between atoms: _220  and  _222
REMARK  104  A    between atoms: _222  and  _223
REMARK  105  A    between atoms: _225  and  _227
REMARK  106  A    between atoms: _227  and  _228
REMARK  107  A    between atoms: _227  and  _230
REMARK  108  A    between atoms: _230  and  _231
REMARK  109  A    between atoms: _231  and  _233
REMARK  110  A    between atoms: _233  and  ZN_395
REMARK  111  A    between atoms: _234  and  _236
REMARK  112  A    between atoms: _236  and  _237
REMARK  113  A    between atoms: _236  and  _239
REMARK  114  A    between atoms: _239  and  _240
REMARK  115  A    between atoms: _243  and  _245
REMARK  116  A    between atoms: _245  and  _246
REMARK  117  A    between atoms: _245  and  _248
REMARK  118  A    between atoms: _248  and  _249
REMARK  119  A    between atoms: _252  and  _254
REMARK  120  A    between atoms: _254  and  _255
REMARK  121  A    between atoms: _254  and  _257
REMARK  122  A    between atoms: _257  and  _258
REMARK  123  A    between atoms: _261  and  _263
REMARK  124  A    between atoms: _263  and  _264
REMARK  125  A    between atoms: _263  and  _266
REMARK  126  A    between atoms: _266  and  _267
REMARK  127  A    between atoms: _267  and  _268
REMARK  128  A    between atoms: _268  and  _269
REMARK  129  A    between atoms: _269  and  _270
REMARK  130  A    between atoms: _274  and  _276
REMARK  131  A    between atoms: _276  and  _277
REMARK  132  A    between atoms: _276  and  _279
REMARK  133  A    between atoms: _279  and  _280
REMARK  134  A    between atoms: _285  and  _287
REMARK  135  A    between atoms: _287  and  _288
REMARK  136  A    between atoms: _287  and  _290
REMARK  137  A    between atoms: _290  and  _291
REMARK  138  A    between atoms: _291  and  _292
REMARK  139  A    between atoms: _297  and  _299
REMARK  140  A    between atoms: _299  and  _300
REMARK  141  A    between atoms: _299  and  _302
REMARK  142  A    between atoms: _302  and  _303
REMARK  143  A    between atoms: _303  and  _304
REMARK  144  A    between atoms: _306  and  _308
REMARK  145  A    between atoms: _308  and  _309
REMARK  146  A    between atoms: _308  and  _311
REMARK  147  A    between atoms: _311  and  _312
REMARK  148  A    between atoms: _314  and  _316
REMARK  149  A    between atoms: _316  and  _317
REMARK  150  A    between atoms: _316  and  _319
REMARK  151  A    between atoms: _319  and  _320
REMARK  152  A    between atoms: _325  and  _327
REMARK  153  A    between atoms: _327  and  _328
REMARK  154  A    between atoms: _327  and  _330
REMARK  155  A    between atoms: _330  and  _331
REMARK  156  A    between atoms: _331  and  _332
REMARK  157  A    between atoms: _332  and  _333
REMARK  158  A    between atoms: _342  and  _344
REMARK  159  A    between atoms: _344  and  _345
REMARK  160  A    between atoms: _344  and  _347
REMARK  161  A    between atoms: _347  and  _348
REMARK  162  A    between atoms: _350  and  _352
REMARK  163  A    between atoms: _352  and  _353
REMARK  164  A    between atoms: _355  and  _357
REMARK  165  A    between atoms: _357  and  _358
REMARK  166  A    between atoms: _357  and  _360
REMARK  167  A    between atoms: _360  and  _361
REMARK  168  A    between atoms: _361  and  _362
REMARK  169  A    between atoms: _365  and  _367
REMARK  170  A    between atoms: _367  and  _368
REMARK  171  A    between atoms: _367  and  _370
REMARK  172  A    between atoms: _370  and  _371
REMARK  173  A    between atoms: _371  and  _372
REMARK  174  A    between atoms: _372  and  _373
REMARK  175  A    between atoms: _373  and  _374
REMARK  176  A    between atoms: _378  and  _380
REMARK  177  A    between atoms: _380  and  _381
REMARK  178  A    between atoms: _380  and  _383
REMARK  179  A    between atoms: _383  and  _384
REMARK  180  A    between atoms: _384  and  _385
REMARK  181  A    between atoms: _385  and  _386
REMARK                            x       y       z     vdW  Elec       q    Type
REMARK                         _______ _______ _______ _____ _____    ______ ____
ROOT
ATOM      1  O   HOH     1      12.867  29.007  29.986  0.00  0.00    +0.000 OA
ENDROOT
TORSDOF 0
REMARK  Name = ../refined-set-2016/2ptz/2ptz_pocket.pdb
REMARK  181 active torsions:
REMARK  status: ('A' for Active; 'I' for Inactive)
REMARK    1  A    between atoms: _1  and  _3
REMARK    2  A    between atoms: _3  and  _4
REMARK    3  A    between atoms: _3  and  _6
REMARK    4  A    between atoms: _6  and  _7
REMARK    5  A    between atoms: _7  and  _8
REMARK    6  A    between atoms: _8  and  _9
REMARK    7  A    between atoms: _19  and  _20
REMARK    8  A    between atoms: _25  and  _27
REMARK    9  A    between atoms: _27  and  _28
REMARK   10  A    between atoms: _27  and  _30
REMARK   11  A    between atoms: _30  and  _31
REMARK   12  A    between atoms: _33  and  _35
REMARK   13  A    between atoms: _35  and  _36
REMARK   14  A    between atoms: _38  and  _40
REMARK   15  A    between atoms: _40  and  _41
REMARK   16  A    between atoms: _44  and  _46
REMARK   17  A    between atoms: _46  and  _47
REMARK   18  A    between atoms: _46  and  _49
REMARK   19  A    between atoms: _47  and  _48
REMARK   20  A    between atoms: _47  and  _52
REMARK   21  A    between atoms: _48  and  ZN_396
REMARK   22  A    between atoms: _49  and  _50
REMARK   23  A    between atoms: _52  and  _54
REMARK   24  A    between atoms: _54  and  _55
REMARK   25  A    between atoms: _54  and  _57
REMARK   26  A    between atoms: _57  and  _58
REMARK   27  A    between atoms: _61  and  _63
REMARK   28  A    between atoms: _63  and  _64
REMARK   29  A    between atoms: _66  and  _68
REMARK   30  A    between atoms: _68  and  _69
REMARK   31  A    between atoms: _68  and  _71
REMARK   32  A    between atoms: _71  and  _72
REMARK   33  A    between atoms: _72  and  _73
REMARK   34  A    between atoms: _76  and  _78
REMARK   35  A    between atoms: _78  and  _79
REMARK   36  A    between atoms: _78  and  _81
REMARK   37  A    between atoms: _81  and  _82
REMARK   38  A    between atoms: _87  and  _89
REMARK   39  A    between atoms: _89  and  _90
REMARK   40  A    between atoms: _92  and  _94
REMARK   41  A    between atoms: _94  and  _95
REMARK   42  A    between atoms: _94  and  _97
REMARK   43  A    between atoms: _97  and  _98
REMARK   44  A    between atoms: _98  and  _99
REMARK   45  A    between atoms: _99  and  _100
REMARK   46  A    between atoms: _100  and  _101
REMARK   47  A    between atoms: _105  and  _107
REMARK   48  A    between atoms: _107  and  _108
REMARK   49  A    between atoms: _107  and  _110
REMARK   50  A    between atoms: _110  and  _111
REMARK   51  A    between atoms: _111  and  _112
REMARK   52  A    between atoms: _117  and  _119
REMARK   53  A    between atoms: _119  and  _120
REMARK   54  A    between atoms: _119  and  _122
REMARK   55  A    between atoms: _122  and  _123
REMARK   56  A    between atoms: _123  and  _124
REMARK   57  A    between atoms: _127  and  _129
REMARK   58  A    between atoms: _129  and  _130
REMARK   59  A    between atoms: _129  and  _132
REMARK   60  A    between atoms: _132  and  _133
REMARK   61  A    between atoms: _133  and  _134
REMARK   62  A    between atoms: _136  and  _138
REMARK   63  A    between atoms: _138  and  _139
REMARK   64  A    between atoms: _138  and  _141
REMARK   65  A    between atoms: _141  and  _142
REMARK   66  A    between atoms: _145  and  _147
REMARK   67  A    between atoms: _147  and  _148
REMARK   68  A    between atoms: _147  and  _150
REMARK   69  A    between atoms: _150  and  _151
REMARK   70  A    between atoms: _151  and  _152
REMARK   71  A    between atoms: _155  and  _157
REMARK   72  A    between atoms: _157  and  _158
REMARK   73  A    between atoms: _157  and  _160
REMARK   74  A    between atoms: _160  and  _161
REMARK   75  A    between atoms: _161  and  _163
REMARK   76  A    between atoms: _163  and  ZN_395
REMARK   77  A    between atoms: _164  and  _166
REMARK   78  A    between atoms: _166  and  _167
REMARK   79  A    between atoms: _166  and  _169
REMARK   80  A    between atoms: _171  and  _173
REMARK   81  A    between atoms: _173  and  _174
REMARK   82  A    between atoms: _177  and  _179
REMARK   83  A    between atoms: _179  and  _180
REMARK   84  A    between atoms: _183  and  _185
REMARK   85  A    between atoms: _185  and  _186
REMARK   86  A    between atoms: _185  and  _188
REMARK   87  A    between atoms: _188  and  _189
REMARK   88  A    between atoms: _189  and  _190
REMARK   89  A    between atoms: _193  and  _195
REMARK   90  A    between atoms: _195  and  _196
REMARK   91  A    between atoms: _195  and  _198
REMARK   92  A    between atoms: _198  and  _199
REMARK   93  A    between atoms: _199  and  _200
REMARK   94  A    between atoms: _200  and  _202
REMARK   95  A    between atoms: _202  and  ZN_395
REMARK   96  A    between atoms: _203  and  _205
REMARK   97  A    between atoms: _205  and  _206
REMARK   98  A    between atoms: _205  and  _208
REMARK   99  A    between atoms: _208  and  _209
REMARK  100  A    between atoms: _212  and  _214
REMARK  101  A    between atoms: _214  and  _215
REMARK  102  A    between atoms: _214  and  _217
REMARK  103  A    between atoms: _220  and  _222
REMARK  104  A    between atoms: _222  and  _223
REMARK  105  A    between atoms: _225  and  _227
REMARK  106  A    between atoms: _227  and  _228
REMARK  107  A    between atoms: _227  and  _230
REMARK  108  A    between atoms: _230  and  _231
REMARK  109  A    between atoms: _231  and  _233
REMARK  110  A    between atoms: _233  and  ZN_395
REMARK  111  A    between atoms: _234  and  _236
REMARK  112  A    between atoms: _236  and  _237
REMARK  113  A    between atoms: _236  and  _239
REMARK  114  A    between atoms: _239  and  _240
REMARK  115  A    between atoms: _243  and  _245
REMARK  116  A    between atoms: _245  and  _246
REMARK  117  A    between atoms: _245  and  _248
REMARK  118  A    between atoms: _248  and  _249
REMARK  119  A    between atoms: _252  and  _254
REMARK  120  A    between atoms: _254  and  _255
REMARK  121  A    between atoms: _254  and  _257
REMARK  122  A    between atoms: _257  and  _258
REMARK  123  A    between atoms: _261  and  _263
REMARK  124  A    between atoms: _263  and  _264
REMARK  125  A    between atoms: _263  and  _266
REMARK  126  A    between atoms: _266  and  _267
REMARK  127  A    between atoms: _267  and  _268
REMARK  128  A    between atoms: _268  and  _269
REMARK  129  A    between atoms: _269  and  _270
REMARK  130  A    between atoms: _274  and  _276
REMARK  131  A    between atoms: _276  and  _277
REMARK  132  A    between atoms: _276  and  _279
REMARK  133  A    between atoms: _279  and  _280
REMARK  134  A    between atoms: _285  and  _287
REMARK  135  A    between atoms: _287  and  _288
REMARK  136  A    between atoms: _287  and  _290
REMARK  137  A    between atoms: _290  and  _291
REMARK  138  A    between atoms: _291  and  _292
REMARK  139  A    between atoms: _297  and  _299
REMARK  140  A    between atoms: _299  and  _300
REMARK  141  A    between atoms: _299  and  _302
REMARK  142  A    between atoms: _302  and  _303
REMARK  143  A    between atoms: _303  and  _304
REMARK  144  A    between atoms: _306  and  _308
REMARK  145  A    between atoms: _308  and  _309
REMARK  146  A    between atoms: _308  and  _311
REMARK  147  A    between atoms: _311  and  _312
REMARK  148  A    between atoms: _314  and  _316
REMARK  149  A    between atoms: _316  and  _317
REMARK  150  A    between atoms: _316  and  _319
REMARK  151  A    between atoms: _319  and  _320
REMARK  152  A    between atoms: _325  and  _327
REMARK  153  A    between atoms: _327  and  _328
REMARK  154  A    between atoms: _327  and  _330
REMARK  155  A    between atoms: _330  and  _331
REMARK  156  A    between atoms: _331  and  _332
REMARK  157  A    between atoms: _332  and  _333
REMARK  158  A    between atoms: _342  and  _344
REMARK  159  A    between atoms: _344  and  _345
REMARK  160  A    between atoms: _344  and  _347
REMARK  161  A    between atoms: _347  and  _348
REMARK  162  A    between atoms: _350  and  _352
REMARK  163  A    between atoms: _352  and  _353
REMARK  164  A    between atoms: _355  and  _357
REMARK  165  A    between atoms: _357  and  _358
REMARK  166  A    between atoms: _357  and  _360
REMARK  167  A    between atoms: _360  and  _361
REMARK  168  A    between atoms: _361  and  _362
REMARK  169  A    between atoms: _365  and  _367
REMARK  170  A    between atoms: _367  and  _368
REMARK  171  A    between atoms: _367  and  _370
REMARK  172  A    between atoms: _370  and  _371
REMARK  173  A    between atoms: _371  and  _372
REMARK  174  A    between atoms: _372  and  _373
REMARK  175  A    between atoms: _373  and  _374
REMARK  176  A    between atoms: _378  and  _380
REMARK  177  A    between atoms: _380  and  _381
REMARK  178  A    between atoms: _380  and  _383
REMARK  179  A    between atoms: _383  and  _384
REMARK  180  A    between atoms: _384  and  _385
REMARK  181  A    between atoms: _385  and  _386
REMARK                            x       y       z     vdW  Elec       q    Type
REMARK                         _______ _______ _______ _____ _____    ______ ____
ROOT
ATOM      1  O   HOH     1      18.161  24.522  41.211  0.00  0.00    +0.000 OA
ENDROOT
TORSDOF 0
REMARK  Name = ../refined-set-2016/2ptz/2ptz_pocket.pdb
REMARK  181 active torsions:
REMARK  status: ('A' for Active; 'I' for Inactive)
REMARK    1  A    between atoms: _1  and  _3
REMARK    2  A    between atoms: _3  and  _4
REMARK    3  A    between atoms: _3  and  _6
REMARK    4  A    between atoms: _6  and  _7
REMARK    5  A    between atoms: _7  and  _8
REMARK    6  A    between atoms: _8  and  _9
REMARK    7  A    between atoms: _19  and  _20
REMARK    8  A    between atoms: _25  and  _27
REMARK    9  A    between atoms: _27  and  _28
REMARK   10  A    between atoms: _27  and  _30
REMARK   11  A    between atoms: _30  and  _31
REMARK   12  A    between atoms: _33  and  _35
REMARK   13  A    between atoms: _35  and  _36
REMARK   14  A    between atoms: _38  and  _40
REMARK   15  A    between atoms: _40  and  _41
REMARK   16  A    between atoms: _44  and  _46
REMARK   17  A    between atoms: _46  and  _47
REMARK   18  A    between atoms: _46  and  _49
REMARK   19  A    between atoms: _47  and  _48
REMARK   20  A    between atoms: _47  and  _52
REMARK   21  A    between atoms: _48  and  ZN_396
REMARK   22  A    between atoms: _49  and  _50
REMARK   23  A    between atoms: _52  and  _54
REMARK   24  A    between atoms: _54  and  _55
REMARK   25  A    between atoms: _54  and  _57
REMARK   26  A    between atoms: _57  and  _58
REMARK   27  A    between atoms: _61  and  _63
REMARK   28  A    between atoms: _63  and  _64
REMARK   29  A    between atoms: _66  and  _68
REMARK   30  A    between atoms: _68  and  _69
REMARK   31  A    between atoms: _68  and  _71
REMARK   32  A    between atoms: _71  and  _72
REMARK   33  A    between atoms: _72  and  _73
REMARK   34  A    between atoms: _76  and  _78
REMARK   35  A    between atoms: _78  and  _79
REMARK   36  A    between atoms: _78  and  _81
REMARK   37  A    between atoms: _81  and  _82
REMARK   38  A    between atoms: _87  and  _89
REMARK   39  A    between atoms: _89  and  _90
REMARK   40  A    between atoms: _92  and  _94
REMARK   41  A    between atoms: _94  and  _95
REMARK   42  A    between atoms: _94  and  _97
REMARK   43  A    between atoms: _97  and  _98
REMARK   44  A    between atoms: _98  and  _99
REMARK   45  A    between atoms: _99  and  _100
REMARK   46  A    between atoms: _100  and  _101
REMARK   47  A    between atoms: _105  and  _107
REMARK   48  A    between atoms: _107  and  _108
REMARK   49  A    between atoms: _107  and  _110
REMARK   50  A    between atoms: _110  and  _111
REMARK   51  A    between atoms: _111  and  _112
REMARK   52  A    between atoms: _117  and  _119
REMARK   53  A    between atoms: _119  and  _120
REMARK   54  A    between atoms: _119  and  _122
REMARK   55  A    between atoms: _122  and  _123
REMARK   56  A    between atoms: _123  and  _124
REMARK   57  A    between atoms: _127  and  _129
REMARK   58  A    between atoms: _129  and  _130
REMARK   59  A    between atoms: _129  and  _132
REMARK   60  A    between atoms: _132  and  _133
REMARK   61  A    between atoms: _133  and  _134
REMARK   62  A    between atoms: _136  and  _138
REMARK   63  A    between atoms: _138  and  _139
REMARK   64  A    between atoms: _138  and  _141
REMARK   65  A    between atoms: _141  and  _142
REMARK   66  A    between atoms: _145  and  _147
REMARK   67  A    between atoms: _147  and  _148
REMARK   68  A    between atoms: _147  and  _150
REMARK   69  A    between atoms: _150  and  _151
REMARK   70  A    between atoms: _151  and  _152
REMARK   71  A    between atoms: _155  and  _157
REMARK   72  A    between atoms: _157  and  _158
REMARK   73  A    between atoms: _157  and  _160
REMARK   74  A    between atoms: _160  and  _161
REMARK   75  A    between atoms: _161  and  _163
REMARK   76  A    between atoms: _163  and  ZN_395
REMARK   77  A    between atoms: _164  and  _166
REMARK   78  A    between atoms: _166  and  _167
REMARK   79  A    between atoms: _166  and  _169
REMARK   80  A    between atoms: _171  and  _173
REMARK   81  A    between atoms: _173  and  _174
REMARK   82  A    between atoms: _177  and  _179
REMARK   83  A    between atoms: _179  and  _180
REMARK   84  A    between atoms: _183  and  _185
REMARK   85  A    between atoms: _185  and  _186
REMARK   86  A    between atoms: _185  and  _188
REMARK   87  A    between atoms: _188  and  _189
REMARK   88  A    between atoms: _189  and  _190
REMARK   89  A    between atoms: _193  and  _195
REMARK   90  A    between atoms: _195  and  _196
REMARK   91  A    between atoms: _195  and  _198
REMARK   92  A    between atoms: _198  and  _199
REMARK   93  A    between atoms: _199  and  _200
REMARK   94  A    between atoms: _200  and  _202
REMARK   95  A    between atoms: _202  and  ZN_395
REMARK   96  A    between atoms: _203  and  _205
REMARK   97  A    between atoms: _205  and  _206
REMARK   98  A    between atoms: _205  and  _208
REMARK   99  A    between atoms: _208  and  _209
REMARK  100  A    between atoms: _212  and  _214
REMARK  101  A    between atoms: _214  and  _215
REMARK  102  A    between atoms: _214  and  _217
REMARK  103  A    between atoms: _220  and  _222
REMARK  104  A    between atoms: _222  and  _223
REMARK  105  A    between atoms: _225  and  _227
REMARK  106  A    between atoms: _227  and  _228
REMARK  107  A    between atoms: _227  and  _230
REMARK  108  A    between atoms: _230  and  _231
REMARK  109  A    between atoms: _231  and  _233
REMARK  110  A    between atoms: _233  and  ZN_395
REMARK  111  A    between atoms: _234  and  _236
REMARK  112  A    between atoms: _236  and  _237
REMARK  113  A    between atoms: _236  and  _239
REMARK  114  A    between atoms: _239  and  _240
REMARK  115  A    between atoms: _243  and  _245
REMARK  116  A    between atoms: _245  and  _246
REMARK  117  A    between atoms: _245  and  _248
REMARK  118  A    between atoms: _248  and  _249
REMARK  119  A    between atoms: _252  and  _254
REMARK  120  A    between atoms: _254  and  _255
REMARK  121  A    between atoms: _254  and  _257
REMARK  122  A    between atoms: _257  and  _258
REMARK  123  A    between atoms: _261  and  _263
REMARK  124  A    between atoms: _263  and  _264
REMARK  125  A    between atoms: _263  and  _266
REMARK  126  A    between atoms: _266  and  _267
REMARK  127  A    between atoms: _267  and  _268
REMARK  128  A    between atoms: _268  and  _269
REMARK  129  A    between atoms: _269  and  _270
REMARK  130  A    between atoms: _274  and  _276
REMARK  131  A    between atoms: _276  and  _277
REMARK  132  A    between atoms: _276  and  _279
REMARK  133  A    between atoms: _279  and  _280
REMARK  134  A    between atoms: _285  and  _287
REMARK  135  A    between atoms: _287  and  _288
REMARK  136  A    between atoms: _287  and  _290
REMARK  137  A    between atoms: _290  and  _291
REMARK  138  A    between atoms: _291  and  _292
REMARK  139  A    between atoms: _297  and  _299
REMARK  140  A    between atoms: _299  and  _300
REMARK  141  A    between atoms: _299  and  _302
REMARK  142  A    between atoms: _302  and  _303
REMARK  143  A    between atoms: _303  and  _304
REMARK  144  A    between atoms: _306  and  _308
REMARK  145  A    between atoms: _308  and  _309
REMARK  146  A    between atoms: _308  and  _311
REMARK  147  A    between atoms: _311  and  _312
REMARK  148  A    between atoms: _314  and  _316
REMARK  149  A    between atoms: _316  and  _317
REMARK  150  A    between atoms: _316  and  _319
REMARK  151  A    between atoms: _319  and  _320
REMARK  152  A    between atoms: _325  and  _327
REMARK  153  A    between atoms: _327  and  _328
REMARK  154  A    between atoms: _327  and  _330
REMARK  155  A    between atoms: _330  and  _331
REMARK  156  A    between atoms: _331  and  _332
REMARK  157  A    between atoms: _332  and  _333
REMARK  158  A    between atoms: _342  and  _344
REMARK  159  A    between atoms: _344  and  _345
REMARK  160  A    between atoms: _344  and  _347
REMARK  161  A    between atoms: _347  and  _348
REMARK  162  A    between atoms: _350  and  _352
REMARK  163  A    between atoms: _352  and  _353
REMARK  164  A    between atoms: _355  and  _357
REMARK  165  A    between atoms: _357  and  _358
REMARK  166  A    between atoms: _357  and  _360
REMARK  167  A    between atoms: _360  and  _361
REMARK  168  A    between atoms: _361  and  _362
REMARK  169  A    between atoms: _365  and  _367
REMARK  170  A    between atoms: _367  and  _368
REMARK  171  A    between atoms: _367  and  _370
REMARK  172  A    between atoms: _370  and  _371
REMARK  173  A    between atoms: _371  and  _372
REMARK  174  A    between atoms: _372  and  _373
REMARK  175  A    between atoms: _373  and  _374
REMARK  176  A    between atoms: _378  and  _380
REMARK  177  A    between atoms: _380  and  _381
REMARK  178  A    between atoms: _380  and  _383
REMARK  179  A    between atoms: _383  and  _384
REMARK  180  A    between atoms: _384  and  _385
REMARK  181  A    between atoms: _385  and  _386
REMARK                            x       y       z     vdW  Elec       q    Type
REMARK                         _______ _______ _______ _____ _____    ______ ____
ROOT
ATOM      1  O   HOH     1       9.894  24.088  31.626  0.00  0.00    +0.000 OA
ENDROOT
TORSDOF 0
REMARK  Name = ../refined-set-2016/2ptz/2ptz_pocket.pdb
REMARK  181 active torsions:
REMARK  status: ('A' for Active; 'I' for Inactive)
REMARK    1  A    between atoms: _1  and  _3
REMARK    2  A    between atoms: _3  and  _4
REMARK    3  A    between atoms: _3  and  _6
REMARK    4  A    between atoms: _6  and  _7
REMARK    5  A    between atoms: _7  and  _8
REMARK    6  A    between atoms: _8  and  _9
REMARK    7  A    between atoms: _19  and  _20
REMARK    8  A    between atoms: _25  and  _27
REMARK    9  A    between atoms: _27  and  _28
REMARK   10  A    between atoms: _27  and  _30
REMARK   11  A    between atoms: _30  and  _31
REMARK   12  A    between atoms: _33  and  _35
REMARK   13  A    between atoms: _35  and  _36
REMARK   14  A    between atoms: _38  and  _40
REMARK   15  A    between atoms: _40  and  _41
REMARK   16  A    between atoms: _44  and  _46
REMARK   17  A    between atoms: _46  and  _47
REMARK   18  A    between atoms: _46  and  _49
REMARK   19  A    between atoms: _47  and  _48
REMARK   20  A    between atoms: _47  and  _52
REMARK   21  A    between atoms: _48  and  ZN_396
REMARK   22  A    between atoms: _49  and  _50
REMARK   23  A    between atoms: _52  and  _54
REMARK   24  A    between atoms: _54  and  _55
REMARK   25  A    between atoms: _54  and  _57
REMARK   26  A    between atoms: _57  and  _58
REMARK   27  A    between atoms: _61  and  _63
REMARK   28  A    between atoms: _63  and  _64
REMARK   29  A    between atoms: _66  and  _68
REMARK   30  A    between atoms: _68  and  _69
REMARK   31  A    between atoms: _68  and  _71
REMARK   32  A    between atoms: _71  and  _72
REMARK   33  A    between atoms: _72  and  _73
REMARK   34  A    between atoms: _76  and  _78
REMARK   35  A    between atoms: _78  and  _79
REMARK   36  A    between atoms: _78  and  _81
REMARK   37  A    between atoms: _81  and  _82
REMARK   38  A    between atoms: _87  and  _89
REMARK   39  A    between atoms: _89  and  _90
REMARK   40  A    between atoms: _92  and  _94
REMARK   41  A    between atoms: _94  and  _95
REMARK   42  A    between atoms: _94  and  _97
REMARK   43  A    between atoms: _97  and  _98
REMARK   44  A    between atoms: _98  and  _99
REMARK   45  A    between atoms: _99  and  _100
REMARK   46  A    between atoms: _100  and  _101
REMARK   47  A    between atoms: _105  and  _107
REMARK   48  A    between atoms: _107  and  _108
REMARK   49  A    between atoms: _107  and  _110
REMARK   50  A    between atoms: _110  and  _111
REMARK   51  A    between atoms: _111  and  _112
REMARK   52  A    between atoms: _117  and  _119
REMARK   53  A    between atoms: _119  and  _120
REMARK   54  A    between atoms: _119  and  _122
REMARK   55  A    between atoms: _122  and  _123
REMARK   56  A    between atoms: _123  and  _124
REMARK   57  A    between atoms: _127  and  _129
REMARK   58  A    between atoms: _129  and  _130
REMARK   59  A    between atoms: _129  and  _132
REMARK   60  A    between atoms: _132  and  _133
REMARK   61  A    between atoms: _133  and  _134
REMARK   62  A    between atoms: _136  and  _138
REMARK   63  A    between atoms: _138  and  _139
REMARK   64  A    between atoms: _138  and  _141
REMARK   65  A    between atoms: _141  and  _142
REMARK   66  A    between atoms: _145  and  _147
REMARK   67  A    between atoms: _147  and  _148
REMARK   68  A    between atoms: _147  and  _150
REMARK   69  A    between atoms: _150  and  _151
REMARK   70  A    between atoms: _151  and  _152
REMARK   71  A    between atoms: _155  and  _157
REMARK   72  A    between atoms: _157  and  _158
REMARK   73  A    between atoms: _157  and  _160
REMARK   74  A    between atoms: _160  and  _161
REMARK   75  A    between atoms: _161  and  _163
REMARK   76  A    between atoms: _163  and  ZN_395
REMARK   77  A    between atoms: _164  and  _166
REMARK   78  A    between atoms: _166  and  _167
REMARK   79  A    between atoms: _166  and  _169
REMARK   80  A    between atoms: _171  and  _173
REMARK   81  A    between atoms: _173  and  _174
REMARK   82  A    between atoms: _177  and  _179
REMARK   83  A    between atoms: _179  and  _180
REMARK   84  A    between atoms: _183  and  _185
REMARK   85  A    between atoms: _185  and  _186
REMARK   86  A    between atoms: _185  and  _188
REMARK   87  A    between atoms: _188  and  _189
REMARK   88  A    between atoms: _189  and  _190
REMARK   89  A    between atoms: _193  and  _195
REMARK   90  A    between atoms: _195  and  _196
REMARK   91  A    between atoms: _195  and  _198
REMARK   92  A    between atoms: _198  and  _199
REMARK   93  A    between atoms: _199  and  _200
REMARK   94  A    between atoms: _200  and  _202
REMARK   95  A    between atoms: _202  and  ZN_395
REMARK   96  A    between atoms: _203  and  _205
REMARK   97  A    between atoms: _205  and  _206
REMARK   98  A    between atoms: _205  and  _208
REMARK   99  A    between atoms: _208  and  _209
REMARK  100  A    between atoms: _212  and  _214
REMARK  101  A    between atoms: _214  and  _215
REMARK  102  A    between atoms: _214  and  _217
REMARK  103  A    between atoms: _220  and  _222
REMARK  104  A    between atoms: _222  and  _223
REMARK  105  A    between atoms: _225  and  _227
REMARK  106  A    between atoms: _227  and  _228
REMARK  107  A    between atoms: _227  and  _230
REMARK  108  A    between atoms: _230  and  _231
REMARK  109  A    between atoms: _231  and  _233
REMARK  110  A    between atoms: _233  and  ZN_395
REMARK  111  A    between atoms: _234  and  _236
REMARK  112  A    between atoms: _236  and  _237
REMARK  113  A    between atoms: _236  and  _239
REMARK  114  A    between atoms: _239  and  _240
REMARK  115  A    between atoms: _243  and  _245
REMARK  116  A    between atoms: _245  and  _246
REMARK  117  A    between atoms: _245  and  _248
REMARK  118  A    between atoms: _248  and  _249
REMARK  119  A    between atoms: _252  and  _254
REMARK  120  A    between atoms: _254  and  _255
REMARK  121  A    between atoms: _254  and  _257
REMARK  122  A    between atoms: _257  and  _258
REMARK  123  A    between atoms: _261  and  _263
REMARK  124  A    between atoms: _263  and  _264
REMARK  125  A    between atoms: _263  and  _266
REMARK  126  A    between atoms: _266  and  _267
REMARK  127  A    between atoms: _267  and  _268
REMARK  128  A    between atoms: _268  and  _269
REMARK  129  A    between atoms: _269  and  _270
REMARK  130  A    between atoms: _274  and  _276
REMARK  131  A    between atoms: _276  and  _277
REMARK  132  A    between atoms: _276  and  _279
REMARK  133  A    between atoms: _279  and  _280
REMARK  134  A    between atoms: _285  and  _287
REMARK  135  A    between atoms: _287  and  _288
REMARK  136  A    between atoms: _287  and  _290
REMARK  137  A    between atoms: _290  and  _291
REMARK  138  A    between atoms: _291  and  _292
REMARK  139  A    between atoms: _297  and  _299
REMARK  140  A    between atoms: _299  and  _300
REMARK  141  A    between atoms: _299  and  _302
REMARK  142  A    between atoms: _302  and  _303
REMARK  143  A    between atoms: _303  and  _304
REMARK  144  A    between atoms: _306  and  _308
REMARK  145  A    between atoms: _308  and  _309
REMARK  146  A    between atoms: _308  and  _311
REMARK  147  A    between atoms: _311  and  _312
REMARK  148  A    between atoms: _314  and  _316
REMARK  149  A    between atoms: _316  and  _317
REMARK  150  A    between atoms: _316  and  _319
REMARK  151  A    between atoms: _319  and  _320
REMARK  152  A    between atoms: _325  and  _327
REMARK  153  A    between atoms: _327  and  _328
REMARK  154  A    between atoms: _327  and  _330
REMARK  155  A    between atoms: _330  and  _331
REMARK  156  A    between atoms: _331  and  _332
REMARK  157  A    between atoms: _332  and  _333
REMARK  158  A    between atoms: _342  and  _344
REMARK  159  A    between atoms: _344  and  _345
REMARK  160  A    between atoms: _344  and  _347
REMARK  161  A    between atoms: _347  and  _348
REMARK  162  A    between atoms: _350  and  _352
REMARK  163  A    between atoms: _352  and  _353
REMARK  164  A    between atoms: _355  and  _357
REMARK  165  A    between atoms: _357  and  _358
REMARK  166  A    between atoms: _357  and  _360
REMARK  167  A    between atoms: _360  and  _361
REMARK  168  A    between atoms: _361  and  _362
REMARK  169  A    between atoms: _365  and  _367
REMARK  170  A    between atoms: _367  and  _368
REMARK  171  A    between atoms: _367  and  _370
REMARK  172  A    between atoms: _370  and  _371
REMARK  173  A    between atoms: _371  and  _372
REMARK  174  A    between atoms: _372  and  _373
REMARK  175  A    between atoms: _373  and  _374
REMARK  176  A    between atoms: _378  and  _380
REMARK  177  A    between atoms: _380  and  _381
REMARK  178  A    between atoms: _380  and  _383
REMARK  179  A    between atoms: _383  and  _384
REMARK  180  A    between atoms: _384  and  _385
REMARK  181  A    between atoms: _385  and  _386
REMARK                            x       y       z     vdW  Elec       q    Type
REMARK                         _______ _______ _______ _____ _____    ______ ____
ROOT
ATOM      1  O   HOH     1      19.923  29.779  31.403  0.00  0.00    +0.000 OA
ENDROOT
TORSDOF 0
REMARK  Name = ../refined-set-2016/2ptz/2ptz_pocket.pdb
REMARK  181 active torsions:
REMARK  status: ('A' for Active; 'I' for Inactive)
REMARK    1  A    between atoms: _1  and  _3
REMARK    2  A    between atoms: _3  and  _4
REMARK    3  A    between atoms: _3  and  _6
REMARK    4  A    between atoms: _6  and  _7
REMARK    5  A    between atoms: _7  and  _8
REMARK    6  A    between atoms: _8  and  _9
REMARK    7  A    between atoms: _19  and  _20
REMARK    8  A    between atoms: _25  and  _27
REMARK    9  A    between atoms: _27  and  _28
REMARK   10  A    between atoms: _27  and  _30
REMARK   11  A    between atoms: _30  and  _31
REMARK   12  A    between atoms: _33  and  _35
REMARK   13  A    between atoms: _35  and  _36
REMARK   14  A    between atoms: _38  and  _40
REMARK   15  A    between atoms: _40  and  _41
REMARK   16  A    between atoms: _44  and  _46
REMARK   17  A    between atoms: _46  and  _47
REMARK   18  A    between atoms: _46  and  _49
REMARK   19  A    between atoms: _47  and  _48
REMARK   20  A    between atoms: _47  and  _52
REMARK   21  A    between atoms: _48  and  ZN_396
REMARK   22  A    between atoms: _49  and  _50
REMARK   23  A    between atoms: _52  and  _54
REMARK   24  A    between atoms: _54  and  _55
REMARK   25  A    between atoms: _54  and  _57
REMARK   26  A    between atoms: _57  and  _58
REMARK   27  A    between atoms: _61  and  _63
REMARK   28  A    between atoms: _63  and  _64
REMARK   29  A    between atoms: _66  and  _68
REMARK   30  A    between atoms: _68  and  _69
REMARK   31  A    between atoms: _68  and  _71
REMARK   32  A    between atoms: _71  and  _72
REMARK   33  A    between atoms: _72  and  _73
REMARK   34  A    between atoms: _76  and  _78
REMARK   35  A    between atoms: _78  and  _79
REMARK   36  A    between atoms: _78  and  _81
REMARK   37  A    between atoms: _81  and  _82
REMARK   38  A    between atoms: _87  and  _89
REMARK   39  A    between atoms: _89  and  _90
REMARK   40  A    between atoms: _92  and  _94
REMARK   41  A    between atoms: _94  and  _95
REMARK   42  A    between atoms: _94  and  _97
REMARK   43  A    between atoms: _97  and  _98
REMARK   44  A    between atoms: _98  and  _99
REMARK   45  A    between atoms: _99  and  _100
REMARK   46  A    between atoms: _100  and  _101
REMARK   47  A    between atoms: _105  and  _107
REMARK   48  A    between atoms: _107  and  _108
REMARK   49  A    between atoms: _107  and  _110
REMARK   50  A    between atoms: _110  and  _111
REMARK   51  A    between atoms: _111  and  _112
REMARK   52  A    between atoms: _117  and  _119
REMARK   53  A    between atoms: _119  and  _120
REMARK   54  A    between atoms: _119  and  _122
REMARK   55  A    between atoms: _122  and  _123
REMARK   56  A    between atoms: _123  and  _124
REMARK   57  A    between atoms: _127  and  _129
REMARK   58  A    between atoms: _129  and  _130
REMARK   59  A    between atoms: _129  and  _132
REMARK   60  A    between atoms: _132  and  _133
REMARK   61  A    between atoms: _133  and  _134
REMARK   62  A    between atoms: _136  and  _138
REMARK   63  A    between atoms: _138  and  _139
REMARK   64  A    between atoms: _138  and  _141
REMARK   65  A    between atoms: _141  and  _142
REMARK   66  A    between atoms: _145  and  _147
REMARK   67  A    between atoms: _147  and  _148
REMARK   68  A    between atoms: _147  and  _150
REMARK   69  A    between atoms: _150  and  _151
REMARK   70  A    between atoms: _151  and  _152
REMARK   71  A    between atoms: _155  and  _157
REMARK   72  A    between atoms: _157  and  _158
REMARK   73  A    between atoms: _157  and  _160
REMARK   74  A    between atoms: _160  and  _161
REMARK   75  A    between atoms: _161  and  _163
REMARK   76  A    between atoms: _163  and  ZN_395
REMARK   77  A    between atoms: _164  and  _166
REMARK   78  A    between atoms: _166  and  _167
REMARK   79  A    between atoms: _166  and  _169
REMARK   80  A    between atoms: _171  and  _173
REMARK   81  A    between atoms: _173  and  _174
REMARK   82  A    between atoms: _177  and  _179
REMARK   83  A    between atoms: _179  and  _180
REMARK   84  A    between atoms: _183  and  _185
REMARK   85  A    between atoms: _185  and  _186
REMARK   86  A    between atoms: _185  and  _188
REMARK   87  A    between atoms: _188  and  _189
REMARK   88  A    between atoms: _189  and  _190
REMARK   89  A    between atoms: _193  and  _195
REMARK   90  A    between atoms: _195  and  _196
REMARK   91  A    between atoms: _195  and  _198
REMARK   92  A    between atoms: _198  and  _199
REMARK   93  A    between atoms: _199  and  _200
REMARK   94  A    between atoms: _200  and  _202
REMARK   95  A    between atoms: _202  and  ZN_395
REMARK   96  A    between atoms: _203  and  _205
REMARK   97  A    between atoms: _205  and  _206
REMARK   98  A    between atoms: _205  and  _208
REMARK   99  A    between atoms: _208  and  _209
REMARK  100  A    between atoms: _212  and  _214
REMARK  101  A    between atoms: _214  and  _215
REMARK  102  A    between atoms: _214  and  _217
REMARK  103  A    between atoms: _220  and  _222
REMARK  104  A    between atoms: _222  and  _223
REMARK  105  A    between atoms: _225  and  _227
REMARK  106  A    between atoms: _227  and  _228
REMARK  107  A    between atoms: _227  and  _230
REMARK  108  A    between atoms: _230  and  _231
REMARK  109  A    between atoms: _231  and  _233
REMARK  110  A    between atoms: _233  and  ZN_395
REMARK  111  A    between atoms: _234  and  _236
REMARK  112  A    between atoms: _236  and  _237
REMARK  113  A    between atoms: _236  and  _239
REMARK  114  A    between atoms: _239  and  _240
REMARK  115  A    between atoms: _243  and  _245
REMARK  116  A    between atoms: _245  and  _246
REMARK  117  A    between atoms: _245  and  _248
REMARK  118  A    between atoms: _248  and  _249
REMARK  119  A    between atoms: _252  and  _254
REMARK  120  A    between atoms: _254  and  _255
REMARK  121  A    between atoms: _254  and  _257
REMARK  122  A    between atoms: _257  and  _258
REMARK  123  A    between atoms: _261  and  _263
REMARK  124  A    between atoms: _263  and  _264
REMARK  125  A    between atoms: _263  and  _266
REMARK  126  A    between atoms: _266  and  _267
REMARK  127  A    between atoms: _267  and  _268
REMARK  128  A    between atoms: _268  and  _269
REMARK  129  A    between atoms: _269  and  _270
REMARK  130  A    between atoms: _274  and  _276
REMARK  131  A    between atoms: _276  and  _277
REMARK  132  A    between atoms: _276  and  _279
REMARK  133  A    between atoms: _279  and  _280
REMARK  134  A    between atoms: _285  and  _287
REMARK  135  A    between atoms: _287  and  _288
REMARK  136  A    between atoms: _287  and  _290
REMARK  137  A    between atoms: _290  and  _291
REMARK  138  A    between atoms: _291  and  _292
REMARK  139  A    between atoms: _297  and  _299
REMARK  140  A    between atoms: _299  and  _300
REMARK  141  A    between atoms: _299  and  _302
REMARK  142  A    between atoms: _302  and  _303
REMARK  143  A    between atoms: _303  and  _304
REMARK  144  A    between atoms: _306  and  _308
REMARK  145  A    between atoms: _308  and  _309
REMARK  146  A    between atoms: _308  and  _311
REMARK  147  A    between atoms: _311  and  _312
REMARK  148  A    between atoms: _314  and  _316
REMARK  149  A    between atoms: _316  and  _317
REMARK  150  A    between atoms: _316  and  _319
REMARK  151  A    between atoms: _319  and  _320
REMARK  152  A    between atoms: _325  and  _327
REMARK  153  A    between atoms: _327  and  _328
REMARK  154  A    between atoms: _327  and  _330
REMARK  155  A    between atoms: _330  and  _331
REMARK  156  A    between atoms: _331  and  _332
REMARK  157  A    between atoms: _332  and  _333
REMARK  158  A    between atoms: _342  and  _344
REMARK  159  A    between atoms: _344  and  _345
REMARK  160  A    between atoms: _344  and  _347
REMARK  161  A    between atoms: _347  and  _348
REMARK  162  A    between atoms: _350  and  _352
REMARK  163  A    between atoms: _352  and  _353
REMARK  164  A    between atoms: _355  and  _357
REMARK  165  A    between atoms: _357  and  _358
REMARK  166  A    between atoms: _357  and  _360
REMARK  167  A    between atoms: _360  and  _361
REMARK  168  A    between atoms: _361  and  _362
REMARK  169  A    between atoms: _365  and  _367
REMARK  170  A    between atoms: _367  and  _368
REMARK  171  A    between atoms: _367  and  _370
REMARK  172  A    between atoms: _370  and  _371
REMARK  173  A    between atoms: _371  and  _372
REMARK  174  A    between atoms: _372  and  _373
REMARK  175  A    between atoms: _373  and  _374
REMARK  176  A    between atoms: _378  and  _380
REMARK  177  A    between atoms: _380  and  _381
REMARK  178  A    between atoms: _380  and  _383
REMARK  179  A    between atoms: _383  and  _384
REMARK  180  A    between atoms: _384  and  _385
REMARK  181  A    between atoms: _385  and  _386
REMARK                            x       y       z     vdW  Elec       q    Type
REMARK                         _______ _______ _______ _____ _____    ______ ____
ROOT
ATOM      1  O   HOH     1       5.987  30.641  43.943  0.00  0.00    +0.000 OA
ENDROOT
TORSDOF 0
REMARK  Name = ../refined-set-2016/2ptz/2ptz_pocket.pdb
REMARK  181 active torsions:
REMARK  status: ('A' for Active; 'I' for Inactive)
REMARK    1  A    between atoms: _1  and  _3
REMARK    2  A    between atoms: _3  and  _4
REMARK    3  A    between atoms: _3  and  _6
REMARK    4  A    between atoms: _6  and  _7
REMARK    5  A    between atoms: _7  and  _8
REMARK    6  A    between atoms: _8  and  _9
REMARK    7  A    between atoms: _19  and  _20
REMARK    8  A    between atoms: _25  and  _27
REMARK    9  A    between atoms: _27  and  _28
REMARK   10  A    between atoms: _27  and  _30
REMARK   11  A    between atoms: _30  and  _31
REMARK   12  A    between atoms: _33  and  _35
REMARK   13  A    between atoms: _35  and  _36
REMARK   14  A    between atoms: _38  and  _40
REMARK   15  A    between atoms: _40  and  _41
REMARK   16  A    between atoms: _44  and  _46
REMARK   17  A    between atoms: _46  and  _47
REMARK   18  A    between atoms: _46  and  _49
REMARK   19  A    between atoms: _47  and  _48
REMARK   20  A    between atoms: _47  and  _52
REMARK   21  A    between atoms: _48  and  ZN_396
REMARK   22  A    between atoms: _49  and  _50
REMARK   23  A    between atoms: _52  and  _54
REMARK   24  A    between atoms: _54  and  _55
REMARK   25  A    between atoms: _54  and  _57
REMARK   26  A    between atoms: _57  and  _58
REMARK   27  A    between atoms: _61  and  _63
REMARK   28  A    between atoms: _63  and  _64
REMARK   29  A    between atoms: _66  and  _68
REMARK   30  A    between atoms: _68  and  _69
REMARK   31  A    between atoms: _68  and  _71
REMARK   32  A    between atoms: _71  and  _72
REMARK   33  A    between atoms: _72  and  _73
REMARK   34  A    between atoms: _76  and  _78
REMARK   35  A    between atoms: _78  and  _79
REMARK   36  A    between atoms: _78  and  _81
REMARK   37  A    between atoms: _81  and  _82
REMARK   38  A    between atoms: _87  and  _89
REMARK   39  A    between atoms: _89  and  _90
REMARK   40  A    between atoms: _92  and  _94
REMARK   41  A    between atoms: _94  and  _95
REMARK   42  A    between atoms: _94  and  _97
REMARK   43  A    between atoms: _97  and  _98
REMARK   44  A    between atoms: _98  and  _99
REMARK   45  A    between atoms: _99  and  _100
REMARK   46  A    between atoms: _100  and  _101
REMARK   47  A    between atoms: _105  and  _107
REMARK   48  A    between atoms: _107  and  _108
REMARK   49  A    between atoms: _107  and  _110
REMARK   50  A    between atoms: _110  and  _111
REMARK   51  A    between atoms: _111  and  _112
REMARK   52  A    between atoms: _117  and  _119
REMARK   53  A    between atoms: _119  and  _120
REMARK   54  A    between atoms: _119  and  _122
REMARK   55  A    between atoms: _122  and  _123
REMARK   56  A    between atoms: _123  and  _124
REMARK   57  A    between atoms: _127  and  _129
REMARK   58  A    between atoms: _129  and  _130
REMARK   59  A    between atoms: _129  and  _132
REMARK   60  A    between atoms: _132  and  _133
REMARK   61  A    between atoms: _133  and  _134
REMARK   62  A    between atoms: _136  and  _138
REMARK   63  A    between atoms: _138  and  _139
REMARK   64  A    between atoms: _138  and  _141
REMARK   65  A    between atoms: _141  and  _142
REMARK   66  A    between atoms: _145  and  _147
REMARK   67  A    between atoms: _147  and  _148
REMARK   68  A    between atoms: _147  and  _150
REMARK   69  A    between atoms: _150  and  _151
REMARK   70  A    between atoms: _151  and  _152
REMARK   71  A    between atoms: _155  and  _157
REMARK   72  A    between atoms: _157  and  _158
REMARK   73  A    between atoms: _157  and  _160
REMARK   74  A    between atoms: _160  and  _161
REMARK   75  A    between atoms: _161  and  _163
REMARK   76  A    between atoms: _163  and  ZN_395
REMARK   77  A    between atoms: _164  and  _166
REMARK   78  A    between atoms: _166  and  _167
REMARK   79  A    between atoms: _166  and  _169
REMARK   80  A    between atoms: _171  and  _173
REMARK   81  A    between atoms: _173  and  _174
REMARK   82  A    between atoms: _177  and  _179
REMARK   83  A    between atoms: _179  and  _180
REMARK   84  A    between atoms: _183  and  _185
REMARK   85  A    between atoms: _185  and  _186
REMARK   86  A    between atoms: _185  and  _188
REMARK   87  A    between atoms: _188  and  _189
REMARK   88  A    between atoms: _189  and  _190
REMARK   89  A    between atoms: _193  and  _195
REMARK   90  A    between atoms: _195  and  _196
REMARK   91  A    between atoms: _195  and  _198
REMARK   92  A    between atoms: _198  and  _199
REMARK   93  A    between atoms: _199  and  _200
REMARK   94  A    between atoms: _200  and  _202
REMARK   95  A    between atoms: _202  and  ZN_395
REMARK   96  A    between atoms: _203  and  _205
REMARK   97  A    between atoms: _205  and  _206
REMARK   98  A    between atoms: _205  and  _208
REMARK   99  A    between atoms: _208  and  _209
REMARK  100  A    between atoms: _212  and  _214
REMARK  101  A    between atoms: _214  and  _215
REMARK  102  A    between atoms: _214  and  _217
REMARK  103  A    between atoms: _220  and  _222
REMARK  104  A    between atoms: _222  and  _223
REMARK  105  A    between atoms: _225  and  _227
REMARK  106  A    between atoms: _227  and  _228
REMARK  107  A    between atoms: _227  and  _230
REMARK  108  A    between atoms: _230  and  _231
REMARK  109  A    between atoms: _231  and  _233
REMARK  110  A    between atoms: _233  and  ZN_395
REMARK  111  A    between atoms: _234  and  _236
REMARK  112  A    between atoms: _236  and  _237
REMARK  113  A    between atoms: _236  and  _239
REMARK  114  A    between atoms: _239  and  _240
REMARK  115  A    between atoms: _243  and  _245
REMARK  116  A    between atoms: _245  and  _246
REMARK  117  A    between atoms: _245  and  _248
REMARK  118  A    between atoms: _248  and  _249
REMARK  119  A    between atoms: _252  and  _254
REMARK  120  A    between atoms: _254  and  _255
REMARK  121  A    between atoms: _254  and  _257
REMARK  122  A    between atoms: _257  and  _258
REMARK  123  A    between atoms: _261  and  _263
REMARK  124  A    between atoms: _263  and  _264
REMARK  125  A    between atoms: _263  and  _266
REMARK  126  A    between atoms: _266  and  _267
REMARK  127  A    between atoms: _267  and  _268
REMARK  128  A    between atoms: _268  and  _269
REMARK  129  A    between atoms: _269  and  _270
REMARK  130  A    between atoms: _274  and  _276
REMARK  131  A    between atoms: _276  and  _277
REMARK  132  A    between atoms: _276  and  _279
REMARK  133  A    between atoms: _279  and  _280
REMARK  134  A    between atoms: _285  and  _287
REMARK  135  A    between atoms: _287  and  _288
REMARK  136  A    between atoms: _287  and  _290
REMARK  137  A    between atoms: _290  and  _291
REMARK  138  A    between atoms: _291  and  _292
REMARK  139  A    between atoms: _297  and  _299
REMARK  140  A    between atoms: _299  and  _300
REMARK  141  A    between atoms: _299  and  _302
REMARK  142  A    between atoms: _302  and  _303
REMARK  143  A    between atoms: _303  and  _304
REMARK  144  A    between atoms: _306  and  _308
REMARK  145  A    between atoms: _308  and  _309
REMARK  146  A    between atoms: _308  and  _311
REMARK  147  A    between atoms: _311  and  _312
REMARK  148  A    between atoms: _314  and  _316
REMARK  149  A    between atoms: _316  and  _317
REMARK  150  A    between atoms: _316  and  _319
REMARK  151  A    between atoms: _319  and  _320
REMARK  152  A    between atoms: _325  and  _327
REMARK  153  A    between atoms: _327  and  _328
REMARK  154  A    between atoms: _327  and  _330
REMARK  155  A    between atoms: _330  and  _331
REMARK  156  A    between atoms: _331  and  _332
REMARK  157  A    between atoms: _332  and  _333
REMARK  158  A    between atoms: _342  and  _344
REMARK  159  A    between atoms: _344  and  _345
REMARK  160  A    between atoms: _344  and  _347
REMARK  161  A    between atoms: _347  and  _348
REMARK  162  A    between atoms: _350  and  _352
REMARK  163  A    between atoms: _352  and  _353
REMARK  164  A    between atoms: _355  and  _357
REMARK  165  A    between atoms: _357  and  _358
REMARK  166  A    between atoms: _357  and  _360
REMARK  167  A    between atoms: _360  and  _361
REMARK  168  A    between atoms: _361  and  _362
REMARK  169  A    between atoms: _365  and  _367
REMARK  170  A    between atoms: _367  and  _368
REMARK  171  A    between atoms: _367  and  _370
REMARK  172  A    between atoms: _370  and  _371
REMARK  173  A    between atoms: _371  and  _372
REMARK  174  A    between atoms: _372  and  _373
REMARK  175  A    between atoms: _373  and  _374
REMARK  176  A    between atoms: _378  and  _380
REMARK  177  A    between atoms: _380  and  _381
REMARK  178  A    between atoms: _380  and  _383
REMARK  179  A    between atoms: _383  and  _384
REMARK  180  A    between atoms: _384  and  _385
REMARK  181  A    between atoms: _385  and  _386
REMARK                            x       y       z     vdW  Elec       q    Type
REMARK                         _______ _______ _______ _____ _____    ______ ____
ROOT
ATOM      1  O   HOH     1      10.735  25.232  44.641  0.00  0.00    +0.000 OA
ENDROOT
TORSDOF 0
REMARK  Name = ../refined-set-2016/2ptz/2ptz_pocket.pdb
REMARK  181 active torsions:
REMARK  status: ('A' for Active; 'I' for Inactive)
REMARK    1  A    between atoms: _1  and  _3
REMARK    2  A    between atoms: _3  and  _4
REMARK    3  A    between atoms: _3  and  _6
REMARK    4  A    between atoms: _6  and  _7
REMARK    5  A    between atoms: _7  and  _8
REMARK    6  A    between atoms: _8  and  _9
REMARK    7  A    between atoms: _19  and  _20
REMARK    8  A    between atoms: _25  and  _27
REMARK    9  A    between atoms: _27  and  _28
REMARK   10  A    between atoms: _27  and  _30
REMARK   11  A    between atoms: _30  and  _31
REMARK   12  A    between atoms: _33  and  _35
REMARK   13  A    between atoms: _35  and  _36
REMARK   14  A    between atoms: _38  and  _40
REMARK   15  A    between atoms: _40  and  _41
REMARK   16  A    between atoms: _44  and  _46
REMARK   17  A    between atoms: _46  and  _47
REMARK   18  A    between atoms: _46  and  _49
REMARK   19  A    between atoms: _47  and  _48
REMARK   20  A    between atoms: _47  and  _52
REMARK   21  A    between atoms: _48  and  ZN_396
REMARK   22  A    between atoms: _49  and  _50
REMARK   23  A    between atoms: _52  and  _54
REMARK   24  A    between atoms: _54  and  _55
REMARK   25  A    between atoms: _54  and  _57
REMARK   26  A    between atoms: _57  and  _58
REMARK   27  A    between atoms: _61  and  _63
REMARK   28  A    between atoms: _63  and  _64
REMARK   29  A    between atoms: _66  and  _68
REMARK   30  A    between atoms: _68  and  _69
REMARK   31  A    between atoms: _68  and  _71
REMARK   32  A    between atoms: _71  and  _72
REMARK   33  A    between atoms: _72  and  _73
REMARK   34  A    between atoms: _76  and  _78
REMARK   35  A    between atoms: _78  and  _79
REMARK   36  A    between atoms: _78  and  _81
REMARK   37  A    between atoms: _81  and  _82
REMARK   38  A    between atoms: _87  and  _89
REMARK   39  A    between atoms: _89  and  _90
REMARK   40  A    between atoms: _92  and  _94
REMARK   41  A    between atoms: _94  and  _95
REMARK   42  A    between atoms: _94  and  _97
REMARK   43  A    between atoms: _97  and  _98
REMARK   44  A    between atoms: _98  and  _99
REMARK   45  A    between atoms: _99  and  _100
REMARK   46  A    between atoms: _100  and  _101
REMARK   47  A    between atoms: _105  and  _107
REMARK   48  A    between atoms: _107  and  _108
REMARK   49  A    between atoms: _107  and  _110
REMARK   50  A    between atoms: _110  and  _111
REMARK   51  A    between atoms: _111  and  _112
REMARK   52  A    between atoms: _117  and  _119
REMARK   53  A    between atoms: _119  and  _120
REMARK   54  A    between atoms: _119  and  _122
REMARK   55  A    between atoms: _122  and  _123
REMARK   56  A    between atoms: _123  and  _124
REMARK   57  A    between atoms: _127  and  _129
REMARK   58  A    between atoms: _129  and  _130
REMARK   59  A    between atoms: _129  and  _132
REMARK   60  A    between atoms: _132  and  _133
REMARK   61  A    between atoms: _133  and  _134
REMARK   62  A    between atoms: _136  and  _138
REMARK   63  A    between atoms: _138  and  _139
REMARK   64  A    between atoms: _138  and  _141
REMARK   65  A    between atoms: _141  and  _142
REMARK   66  A    between atoms: _145  and  _147
REMARK   67  A    between atoms: _147  and  _148
REMARK   68  A    between atoms: _147  and  _150
REMARK   69  A    between atoms: _150  and  _151
REMARK   70  A    between atoms: _151  and  _152
REMARK   71  A    between atoms: _155  and  _157
REMARK   72  A    between atoms: _157  and  _158
REMARK   73  A    between atoms: _157  and  _160
REMARK   74  A    between atoms: _160  and  _161
REMARK   75  A    between atoms: _161  and  _163
REMARK   76  A    between atoms: _163  and  ZN_395
REMARK   77  A    between atoms: _164  and  _166
REMARK   78  A    between atoms: _166  and  _167
REMARK   79  A    between atoms: _166  and  _169
REMARK   80  A    between atoms: _171  and  _173
REMARK   81  A    between atoms: _173  and  _174
REMARK   82  A    between atoms: _177  and  _179
REMARK   83  A    between atoms: _179  and  _180
REMARK   84  A    between atoms: _183  and  _185
REMARK   85  A    between atoms: _185  and  _186
REMARK   86  A    between atoms: _185  and  _188
REMARK   87  A    between atoms: _188  and  _189
REMARK   88  A    between atoms: _189  and  _190
REMARK   89  A    between atoms: _193  and  _195
REMARK   90  A    between atoms: _195  and  _196
REMARK   91  A    between atoms: _195  and  _198
REMARK   92  A    between atoms: _198  and  _199
REMARK   93  A    between atoms: _199  and  _200
REMARK   94  A    between atoms: _200  and  _202
REMARK   95  A    between atoms: _202  and  ZN_395
REMARK   96  A    between atoms: _203  and  _205
REMARK   97  A    between atoms: _205  and  _206
REMARK   98  A    between atoms: _205  and  _208
REMARK   99  A    between atoms: _208  and  _209
REMARK  100  A    between atoms: _212  and  _214
REMARK  101  A    between atoms: _214  and  _215
REMARK  102  A    between atoms: _214  and  _217
REMARK  103  A    between atoms: _220  and  _222
REMARK  104  A    between atoms: _222  and  _223
REMARK  105  A    between atoms: _225  and  _227
REMARK  106  A    between atoms: _227  and  _228
REMARK  107  A    between atoms: _227  and  _230
REMARK  108  A    between atoms: _230  and  _231
REMARK  109  A    between atoms: _231  and  _233
REMARK  110  A    between atoms: _233  and  ZN_395
REMARK  111  A    between atoms: _234  and  _236
REMARK  112  A    between atoms: _236  and  _237
REMARK  113  A    between atoms: _236  and  _239
REMARK  114  A    between atoms: _239  and  _240
REMARK  115  A    between atoms: _243  and  _245
REMARK  116  A    between atoms: _245  and  _246
REMARK  117  A    between atoms: _245  and  _248
REMARK  118  A    between atoms: _248  and  _249
REMARK  119  A    between atoms: _252  and  _254
REMARK  120  A    between atoms: _254  and  _255
REMARK  121  A    between atoms: _254  and  _257
REMARK  122  A    between atoms: _257  and  _258
REMARK  123  A    between atoms: _261  and  _263
REMARK  124  A    between atoms: _263  and  _264
REMARK  125  A    between atoms: _263  and  _266
REMARK  126  A    between atoms: _266  and  _267
REMARK  127  A    between atoms: _267  and  _268
REMARK  128  A    between atoms: _268  and  _269
REMARK  129  A    between atoms: _269  and  _270
REMARK  130  A    between atoms: _274  and  _276
REMARK  131  A    between atoms: _276  and  _277
REMARK  132  A    between atoms: _276  and  _279
REMARK  133  A    between atoms: _279  and  _280
REMARK  134  A    between atoms: _285  and  _287
REMARK  135  A    between atoms: _287  and  _288
REMARK  136  A    between atoms: _287  and  _290
REMARK  137  A    between atoms: _290  and  _291
REMARK  138  A    between atoms: _291  and  _292
REMARK  139  A    between atoms: _297  and  _299
REMARK  140  A    between atoms: _299  and  _300
REMARK  141  A    between atoms: _299  and  _302
REMARK  142  A    between atoms: _302  and  _303
REMARK  143  A    between atoms: _303  and  _304
REMARK  144  A    between atoms: _306  and  _308
REMARK  145  A    between atoms: _308  and  _309
REMARK  146  A    between atoms: _308  and  _311
REMARK  147  A    between atoms: _311  and  _312
REMARK  148  A    between atoms: _314  and  _316
REMARK  149  A    between atoms: _316  and  _317
REMARK  150  A    between atoms: _316  and  _319
REMARK  151  A    between atoms: _319  and  _320
REMARK  152  A    between atoms: _325  and  _327
REMARK  153  A    between atoms: _327  and  _328
REMARK  154  A    between atoms: _327  and  _330
REMARK  155  A    between atoms: _330  and  _331
REMARK  156  A    between atoms: _331  and  _332
REMARK  157  A    between atoms: _332  and  _333
REMARK  158  A    between atoms: _342  and  _344
REMARK  159  A    between atoms: _344  and  _345
REMARK  160  A    between atoms: _344  and  _347
REMARK  161  A    between atoms: _347  and  _348
REMARK  162  A    between atoms: _350  and  _352
REMARK  163  A    between atoms: _352  and  _353
REMARK  164  A    between atoms: _355  and  _357
REMARK  165  A    between atoms: _357  and  _358
REMARK  166  A    between atoms: _357  and  _360
REMARK  167  A    between atoms: _360  and  _361
REMARK  168  A    between atoms: _361  and  _362
REMARK  169  A    between atoms: _365  and  _367
REMARK  170  A    between atoms: _367  and  _368
REMARK  171  A    between atoms: _367  and  _370
REMARK  172  A    between atoms: _370  and  _371
REMARK  173  A    between atoms: _371  and  _372
REMARK  174  A    between atoms: _372  and  _373
REMARK  175  A    between atoms: _373  and  _374
REMARK  176  A    between atoms: _378  and  _380
REMARK  177  A    between atoms: _380  and  _381
REMARK  178  A    between atoms: _380  and  _383
REMARK  179  A    between atoms: _383  and  _384
REMARK  180  A    between atoms: _384  and  _385
REMARK  181  A    between atoms: _385  and  _386
REMARK                            x       y       z     vdW  Elec       q    Type
REMARK                         _______ _______ _______ _____ _____    ______ ____
ROOT
ATOM      1  O   HOH     1      11.687  21.805  37.944  0.00  0.00    +0.000 OA
ENDROOT
TORSDOF 0
REMARK  Name = ../refined-set-2016/2ptz/2ptz_pocket.pdb
REMARK  181 active torsions:
REMARK  status: ('A' for Active; 'I' for Inactive)
REMARK    1  A    between atoms: _1  and  _3
REMARK    2  A    between atoms: _3  and  _4
REMARK    3  A    between atoms: _3  and  _6
REMARK    4  A    between atoms: _6  and  _7
REMARK    5  A    between atoms: _7  and  _8
REMARK    6  A    between atoms: _8  and  _9
REMARK    7  A    between atoms: _19  and  _20
REMARK    8  A    between atoms: _25  and  _27
REMARK    9  A    between atoms: _27  and  _28
REMARK   10  A    between atoms: _27  and  _30
REMARK   11  A    between atoms: _30  and  _31
REMARK   12  A    between atoms: _33  and  _35
REMARK   13  A    between atoms: _35  and  _36
REMARK   14  A    between atoms: _38  and  _40
REMARK   15  A    between atoms: _40  and  _41
REMARK   16  A    between atoms: _44  and  _46
REMARK   17  A    between atoms: _46  and  _47
REMARK   18  A    between atoms: _46  and  _49
REMARK   19  A    between atoms: _47  and  _48
REMARK   20  A    between atoms: _47  and  _52
REMARK   21  A    between atoms: _48  and  ZN_396
REMARK   22  A    between atoms: _49  and  _50
REMARK   23  A    between atoms: _52  and  _54
REMARK   24  A    between atoms: _54  and  _55
REMARK   25  A    between atoms: _54  and  _57
REMARK   26  A    between atoms: _57  and  _58
REMARK   27  A    between atoms: _61  and  _63
REMARK   28  A    between atoms: _63  and  _64
REMARK   29  A    between atoms: _66  and  _68
REMARK   30  A    between atoms: _68  and  _69
REMARK   31  A    between atoms: _68  and  _71
REMARK   32  A    between atoms: _71  and  _72
REMARK   33  A    between atoms: _72  and  _73
REMARK   34  A    between atoms: _76  and  _78
REMARK   35  A    between atoms: _78  and  _79
REMARK   36  A    between atoms: _78  and  _81
REMARK   37  A    between atoms: _81  and  _82
REMARK   38  A    between atoms: _87  and  _89
REMARK   39  A    between atoms: _89  and  _90
REMARK   40  A    between atoms: _92  and  _94
REMARK   41  A    between atoms: _94  and  _95
REMARK   42  A    between atoms: _94  and  _97
REMARK   43  A    between atoms: _97  and  _98
REMARK   44  A    between atoms: _98  and  _99
REMARK   45  A    between atoms: _99  and  _100
REMARK   46  A    between atoms: _100  and  _101
REMARK   47  A    between atoms: _105  and  _107
REMARK   48  A    between atoms: _107  and  _108
REMARK   49  A    between atoms: _107  and  _110
REMARK   50  A    between atoms: _110  and  _111
REMARK   51  A    between atoms: _111  and  _112
REMARK   52  A    between atoms: _117  and  _119
REMARK   53  A    between atoms: _119  and  _120
REMARK   54  A    between atoms: _119  and  _122
REMARK   55  A    between atoms: _122  and  _123
REMARK   56  A    between atoms: _123  and  _124
REMARK   57  A    between atoms: _127  and  _129
REMARK   58  A    between atoms: _129  and  _130
REMARK   59  A    between atoms: _129  and  _132
REMARK   60  A    between atoms: _132  and  _133
REMARK   61  A    between atoms: _133  and  _134
REMARK   62  A    between atoms: _136  and  _138
REMARK   63  A    between atoms: _138  and  _139
REMARK   64  A    between atoms: _138  and  _141
REMARK   65  A    between atoms: _141  and  _142
REMARK   66  A    between atoms: _145  and  _147
REMARK   67  A    between atoms: _147  and  _148
REMARK   68  A    between atoms: _147  and  _150
REMARK   69  A    between atoms: _150  and  _151
REMARK   70  A    between atoms: _151  and  _152
REMARK   71  A    between atoms: _155  and  _157
REMARK   72  A    between atoms: _157  and  _158
REMARK   73  A    between atoms: _157  and  _160
REMARK   74  A    between atoms: _160  and  _161
REMARK   75  A    between atoms: _161  and  _163
REMARK   76  A    between atoms: _163  and  ZN_395
REMARK   77  A    between atoms: _164  and  _166
REMARK   78  A    between atoms: _166  and  _167
REMARK   79  A    between atoms: _166  and  _169
REMARK   80  A    between atoms: _171  and  _173
REMARK   81  A    between atoms: _173  and  _174
REMARK   82  A    between atoms: _177  and  _179
REMARK   83  A    between atoms: _179  and  _180
REMARK   84  A    between atoms: _183  and  _185
REMARK   85  A    between atoms: _185  and  _186
REMARK   86  A    between atoms: _185  and  _188
REMARK   87  A    between atoms: _188  and  _189
REMARK   88  A    between atoms: _189  and  _190
REMARK   89  A    between atoms: _193  and  _195
REMARK   90  A    between atoms: _195  and  _196
REMARK   91  A    between atoms: _195  and  _198
REMARK   92  A    between atoms: _198  and  _199
REMARK   93  A    between atoms: _199  and  _200
REMARK   94  A    between atoms: _200  and  _202
REMARK   95  A    between atoms: _202  and  ZN_395
REMARK   96  A    between atoms: _203  and  _205
REMARK   97  A    between atoms: _205  and  _206
REMARK   98  A    between atoms: _205  and  _208
REMARK   99  A    between atoms: _208  and  _209
REMARK  100  A    between atoms: _212  and  _214
REMARK  101  A    between atoms: _214  and  _215
REMARK  102  A    between atoms: _214  and  _217
REMARK  103  A    between atoms: _220  and  _222
REMARK  104  A    between atoms: _222  and  _223
REMARK  105  A    between atoms: _225  and  _227
REMARK  106  A    between atoms: _227  and  _228
REMARK  107  A    between atoms: _227  and  _230
REMARK  108  A    between atoms: _230  and  _231
REMARK  109  A    between atoms: _231  and  _233
REMARK  110  A    between atoms: _233  and  ZN_395
REMARK  111  A    between atoms: _234  and  _236
REMARK  112  A    between atoms: _236  and  _237
REMARK  113  A    between atoms: _236  and  _239
REMARK  114  A    between atoms: _239  and  _240
REMARK  115  A    between atoms: _243  and  _245
REMARK  116  A    between atoms: _245  and  _246
REMARK  117  A    between atoms: _245  and  _248
REMARK  118  A    between atoms: _248  and  _249
REMARK  119  A    between atoms: _252  and  _254
REMARK  120  A    between atoms: _254  and  _255
REMARK  121  A    between atoms: _254  and  _257
REMARK  122  A    between atoms: _257  and  _258
REMARK  123  A    between atoms: _261  and  _263
REMARK  124  A    between atoms: _263  and  _264
REMARK  125  A    between atoms: _263  and  _266
REMARK  126  A    between atoms: _266  and  _267
REMARK  127  A    between atoms: _267  and  _268
REMARK  128  A    between atoms: _268  and  _269
REMARK  129  A    between atoms: _269  and  _270
REMARK  130  A    between atoms: _274  and  _276
REMARK  131  A    between atoms: _276  and  _277
REMARK  132  A    between atoms: _276  and  _279
REMARK  133  A    between atoms: _279  and  _280
REMARK  134  A    between atoms: _285  and  _287
REMARK  135  A    between atoms: _287  and  _288
REMARK  136  A    between atoms: _287  and  _290
REMARK  137  A    between atoms: _290  and  _291
REMARK  138  A    between atoms: _291  and  _292
REMARK  139  A    between atoms: _297  and  _299
REMARK  140  A    between atoms: _299  and  _300
REMARK  141  A    between atoms: _299  and  _302
REMARK  142  A    between atoms: _302  and  _303
REMARK  143  A    between atoms: _303  and  _304
REMARK  144  A    between atoms: _306  and  _308
REMARK  145  A    between atoms: _308  and  _309
REMARK  146  A    between atoms: _308  and  _311
REMARK  147  A    between atoms: _311  and  _312
REMARK  148  A    between atoms: _314  and  _316
REMARK  149  A    between atoms: _316  and  _317
REMARK  150  A    between atoms: _316  and  _319
REMARK  151  A    between atoms: _319  and  _320
REMARK  152  A    between atoms: _325  and  _327
REMARK  153  A    between atoms: _327  and  _328
REMARK  154  A    between atoms: _327  and  _330
REMARK  155  A    between atoms: _330  and  _331
REMARK  156  A    between atoms: _331  and  _332
REMARK  157  A    between atoms: _332  and  _333
REMARK  158  A    between atoms: _342  and  _344
REMARK  159  A    between atoms: _344  and  _345
REMARK  160  A    between atoms: _344  and  _347
REMARK  161  A    between atoms: _347  and  _348
REMARK  162  A    between atoms: _350  and  _352
REMARK  163  A    between atoms: _352  and  _353
REMARK  164  A    between atoms: _355  and  _357
REMARK  165  A    between atoms: _357  and  _358
REMARK  166  A    between atoms: _357  and  _360
REMARK  167  A    between atoms: _360  and  _361
REMARK  168  A    between atoms: _361  and  _362
REMARK  169  A    between atoms: _365  and  _367
REMARK  170  A    between atoms: _367  and  _368
REMARK  171  A    between atoms: _367  and  _370
REMARK  172  A    between atoms: _370  and  _371
REMARK  173  A    between atoms: _371  and  _372
REMARK  174  A    between atoms: _372  and  _373
REMARK  175  A    between atoms: _373  and  _374
REMARK  176  A    between atoms: _378  and  _380
REMARK  177  A    between atoms: _380  and  _381
REMARK  178  A    between atoms: _380  and  _383
REMARK  179  A    between atoms: _383  and  _384
REMARK  180  A    between atoms: _384  and  _385
REMARK  181  A    between atoms: _385  and  _386
REMARK                            x       y       z     vdW  Elec       q    Type
REMARK                         _______ _______ _______ _____ _____    ______ ____
ROOT
ATOM      1  O   HOH     1       3.687  30.299  40.982  0.00  0.00    +0.000 OA
ENDROOT
TORSDOF 0
REMARK  Name = ../refined-set-2016/2ptz/2ptz_pocket.pdb
REMARK  181 active torsions:
REMARK  status: ('A' for Active; 'I' for Inactive)
REMARK    1  A    between atoms: _1  and  _3
REMARK    2  A    between atoms: _3  and  _4
REMARK    3  A    between atoms: _3  and  _6
REMARK    4  A    between atoms: _6  and  _7
REMARK    5  A    between atoms: _7  and  _8
REMARK    6  A    between atoms: _8  and  _9
REMARK    7  A    between atoms: _19  and  _20
REMARK    8  A    between atoms: _25  and  _27
REMARK    9  A    between atoms: _27  and  _28
REMARK   10  A    between atoms: _27  and  _30
REMARK   11  A    between atoms: _30  and  _31
REMARK   12  A    between atoms: _33  and  _35
REMARK   13  A    between atoms: _35  and  _36
REMARK   14  A    between atoms: _38  and  _40
REMARK   15  A    between atoms: _40  and  _41
REMARK   16  A    between atoms: _44  and  _46
REMARK   17  A    between atoms: _46  and  _47
REMARK   18  A    between atoms: _46  and  _49
REMARK   19  A    between atoms: _47  and  _48
REMARK   20  A    between atoms: _47  and  _52
REMARK   21  A    between atoms: _48  and  ZN_396
REMARK   22  A    between atoms: _49  and  _50
REMARK   23  A    between atoms: _52  and  _54
REMARK   24  A    between atoms: _54  and  _55
REMARK   25  A    between atoms: _54  and  _57
REMARK   26  A    between atoms: _57  and  _58
REMARK   27  A    between atoms: _61  and  _63
REMARK   28  A    between atoms: _63  and  _64
REMARK   29  A    between atoms: _66  and  _68
REMARK   30  A    between atoms: _68  and  _69
REMARK   31  A    between atoms: _68  and  _71
REMARK   32  A    between atoms: _71  and  _72
REMARK   33  A    between atoms: _72  and  _73
REMARK   34  A    between atoms: _76  and  _78
REMARK   35  A    between atoms: _78  and  _79
REMARK   36  A    between atoms: _78  and  _81
REMARK   37  A    between atoms: _81  and  _82
REMARK   38  A    between atoms: _87  and  _89
REMARK   39  A    between atoms: _89  and  _90
REMARK   40  A    between atoms: _92  and  _94
REMARK   41  A    between atoms: _94  and  _95
REMARK   42  A    between atoms: _94  and  _97
REMARK   43  A    between atoms: _97  and  _98
REMARK   44  A    between atoms: _98  and  _99
REMARK   45  A    between atoms: _99  and  _100
REMARK   46  A    between atoms: _100  and  _101
REMARK   47  A    between atoms: _105  and  _107
REMARK   48  A    between atoms: _107  and  _108
REMARK   49  A    between atoms: _107  and  _110
REMARK   50  A    between atoms: _110  and  _111
REMARK   51  A    between atoms: _111  and  _112
REMARK   52  A    between atoms: _117  and  _119
REMARK   53  A    between atoms: _119  and  _120
REMARK   54  A    between atoms: _119  and  _122
REMARK   55  A    between atoms: _122  and  _123
REMARK   56  A    between atoms: _123  and  _124
REMARK   57  A    between atoms: _127  and  _129
REMARK   58  A    between atoms: _129  and  _130
REMARK   59  A    between atoms: _129  and  _132
REMARK   60  A    between atoms: _132  and  _133
REMARK   61  A    between atoms: _133  and  _134
REMARK   62  A    between atoms: _136  and  _138
REMARK   63  A    between atoms: _138  and  _139
REMARK   64  A    between atoms: _138  and  _141
REMARK   65  A    between atoms: _141  and  _142
REMARK   66  A    between atoms: _145  and  _147
REMARK   67  A    between atoms: _147  and  _148
REMARK   68  A    between atoms: _147  and  _150
REMARK   69  A    between atoms: _150  and  _151
REMARK   70  A    between atoms: _151  and  _152
REMARK   71  A    between atoms: _155  and  _157
REMARK   72  A    between atoms: _157  and  _158
REMARK   73  A    between atoms: _157  and  _160
REMARK   74  A    between atoms: _160  and  _161
REMARK   75  A    between atoms: _161  and  _163
REMARK   76  A    between atoms: _163  and  ZN_395
REMARK   77  A    between atoms: _164  and  _166
REMARK   78  A    between atoms: _166  and  _167
REMARK   79  A    between atoms: _166  and  _169
REMARK   80  A    between atoms: _171  and  _173
REMARK   81  A    between atoms: _173  and  _174
REMARK   82  A    between atoms: _177  and  _179
REMARK   83  A    between atoms: _179  and  _180
REMARK   84  A    between atoms: _183  and  _185
REMARK   85  A    between atoms: _185  and  _186
REMARK   86  A    between atoms: _185  and  _188
REMARK   87  A    between atoms: _188  and  _189
REMARK   88  A    between atoms: _189  and  _190
REMARK   89  A    between atoms: _193  and  _195
REMARK   90  A    between atoms: _195  and  _196
REMARK   91  A    between atoms: _195  and  _198
REMARK   92  A    between atoms: _198  and  _199
REMARK   93  A    between atoms: _199  and  _200
REMARK   94  A    between atoms: _200  and  _202
REMARK   95  A    between atoms: _202  and  ZN_395
REMARK   96  A    between atoms: _203  and  _205
REMARK   97  A    between atoms: _205  and  _206
REMARK   98  A    between atoms: _205  and  _208
REMARK   99  A    between atoms: _208  and  _209
REMARK  100  A    between atoms: _212  and  _214
REMARK  101  A    between atoms: _214  and  _215
REMARK  102  A    between atoms: _214  and  _217
REMARK  103  A    between atoms: _220  and  _222
REMARK  104  A    between atoms: _222  and  _223
REMARK  105  A    between atoms: _225  and  _227
REMARK  106  A    between atoms: _227  and  _228
REMARK  107  A    between atoms: _227  and  _230
REMARK  108  A    between atoms: _230  and  _231
REMARK  109  A    between atoms: _231  and  _233
REMARK  110  A    between atoms: _233  and  ZN_395
REMARK  111  A    between atoms: _234  and  _236
REMARK  112  A    between atoms: _236  and  _237
REMARK  113  A    between atoms: _236  and  _239
REMARK  114  A    between atoms: _239  and  _240
REMARK  115  A    between atoms: _243  and  _245
REMARK  116  A    between atoms: _245  and  _246
REMARK  117  A    between atoms: _245  and  _248
REMARK  118  A    between atoms: _248  and  _249
REMARK  119  A    between atoms: _252  and  _254
REMARK  120  A    between atoms: _254  and  _255
REMARK  121  A    between atoms: _254  and  _257
REMARK  122  A    between atoms: _257  and  _258
REMARK  123  A    between atoms: _261  and  _263
REMARK  124  A    between atoms: _263  and  _264
REMARK  125  A    between atoms: _263  and  _266
REMARK  126  A    between atoms: _266  and  _267
REMARK  127  A    between atoms: _267  and  _268
REMARK  128  A    between atoms: _268  and  _269
REMARK  129  A    between atoms: _269  and  _270
REMARK  130  A    between atoms: _274  and  _276
REMARK  131  A    between atoms: _276  and  _277
REMARK  132  A    between atoms: _276  and  _279
REMARK  133  A    between atoms: _279  and  _280
REMARK  134  A    between atoms: _285  and  _287
REMARK  135  A    between atoms: _287  and  _288
REMARK  136  A    between atoms: _287  and  _290
REMARK  137  A    between atoms: _290  and  _291
REMARK  138  A    between atoms: _291  and  _292
REMARK  139  A    between atoms: _297  and  _299
REMARK  140  A    between atoms: _299  and  _300
REMARK  141  A    between atoms: _299  and  _302
REMARK  142  A    between atoms: _302  and  _303
REMARK  143  A    between atoms: _303  and  _304
REMARK  144  A    between atoms: _306  and  _308
REMARK  145  A    between atoms: _308  and  _309
REMARK  146  A    between atoms: _308  and  _311
REMARK  147  A    between atoms: _311  and  _312
REMARK  148  A    between atoms: _314  and  _316
REMARK  149  A    between atoms: _316  and  _317
REMARK  150  A    between atoms: _316  and  _319
REMARK  151  A    between atoms: _319  and  _320
REMARK  152  A    between atoms: _325  and  _327
REMARK  153  A    between atoms: _327  and  _328
REMARK  154  A    between atoms: _327  and  _330
REMARK  155  A    between atoms: _330  and  _331
REMARK  156  A    between atoms: _331  and  _332
REMARK  157  A    between atoms: _332  and  _333
REMARK  158  A    between atoms: _342  and  _344
REMARK  159  A    between atoms: _344  and  _345
REMARK  160  A    between atoms: _344  and  _347
REMARK  161  A    between atoms: _347  and  _348
REMARK  162  A    between atoms: _350  and  _352
REMARK  163  A    between atoms: _352  and  _353
REMARK  164  A    between atoms: _355  and  _357
REMARK  165  A    between atoms: _357  and  _358
REMARK  166  A    between atoms: _357  and  _360
REMARK  167  A    between atoms: _360  and  _361
REMARK  168  A    between atoms: _361  and  _362
REMARK  169  A    between atoms: _365  and  _367
REMARK  170  A    between atoms: _367  and  _368
REMARK  171  A    between atoms: _367  and  _370
REMARK  172  A    between atoms: _370  and  _371
REMARK  173  A    between atoms: _371  and  _372
REMARK  174  A    between atoms: _372  and  _373
REMARK  175  A    between atoms: _373  and  _374
REMARK  176  A    between atoms: _378  and  _380
REMARK  177  A    between atoms: _380  and  _381
REMARK  178  A    between atoms: _380  and  _383
REMARK  179  A    between atoms: _383  and  _384
REMARK  180  A    between atoms: _384  and  _385
REMARK  181  A    between atoms: _385  and  _386
REMARK                            x       y       z     vdW  Elec       q    Type
REMARK                         _______ _______ _______ _____ _____    ______ ____
ROOT
ATOM      1  O   HOH     1      14.708  24.983  43.140  0.00  0.00    +0.000 OA
ENDROOT
TORSDOF 0
REMARK  Name = ../refined-set-2016/2ptz/2ptz_pocket.pdb
REMARK  181 active torsions:
REMARK  status: ('A' for Active; 'I' for Inactive)
REMARK    1  A    between atoms: _1  and  _3
REMARK    2  A    between atoms: _3  and  _4
REMARK    3  A    between atoms: _3  and  _6
REMARK    4  A    between atoms: _6  and  _7
REMARK    5  A    between atoms: _7  and  _8
REMARK    6  A    between atoms: _8  and  _9
REMARK    7  A    between atoms: _19  and  _20
REMARK    8  A    between atoms: _25  and  _27
REMARK    9  A    between atoms: _27  and  _28
REMARK   10  A    between atoms: _27  and  _30
REMARK   11  A    between atoms: _30  and  _31
REMARK   12  A    between atoms: _33  and  _35
REMARK   13  A    between atoms: _35  and  _36
REMARK   14  A    between atoms: _38  and  _40
REMARK   15  A    between atoms: _40  and  _41
REMARK   16  A    between atoms: _44  and  _46
REMARK   17  A    between atoms: _46  and  _47
REMARK   18  A    between atoms: _46  and  _49
REMARK   19  A    between atoms: _47  and  _48
REMARK   20  A    between atoms: _47  and  _52
REMARK   21  A    between atoms: _48  and  ZN_396
REMARK   22  A    between atoms: _49  and  _50
REMARK   23  A    between atoms: _52  and  _54
REMARK   24  A    between atoms: _54  and  _55
REMARK   25  A    between atoms: _54  and  _57
REMARK   26  A    between atoms: _57  and  _58
REMARK   27  A    between atoms: _61  and  _63
REMARK   28  A    between atoms: _63  and  _64
REMARK   29  A    between atoms: _66  and  _68
REMARK   30  A    between atoms: _68  and  _69
REMARK   31  A    between atoms: _68  and  _71
REMARK   32  A    between atoms: _71  and  _72
REMARK   33  A    between atoms: _72  and  _73
REMARK   34  A    between atoms: _76  and  _78
REMARK   35  A    between atoms: _78  and  _79
REMARK   36  A    between atoms: _78  and  _81
REMARK   37  A    between atoms: _81  and  _82
REMARK   38  A    between atoms: _87  and  _89
REMARK   39  A    between atoms: _89  and  _90
REMARK   40  A    between atoms: _92  and  _94
REMARK   41  A    between atoms: _94  and  _95
REMARK   42  A    between atoms: _94  and  _97
REMARK   43  A    between atoms: _97  and  _98
REMARK   44  A    between atoms: _98  and  _99
REMARK   45  A    between atoms: _99  and  _100
REMARK   46  A    between atoms: _100  and  _101
REMARK   47  A    between atoms: _105  and  _107
REMARK   48  A    between atoms: _107  and  _108
REMARK   49  A    between atoms: _107  and  _110
REMARK   50  A    between atoms: _110  and  _111
REMARK   51  A    between atoms: _111  and  _112
REMARK   52  A    between atoms: _117  and  _119
REMARK   53  A    between atoms: _119  and  _120
REMARK   54  A    between atoms: _119  and  _122
REMARK   55  A    between atoms: _122  and  _123
REMARK   56  A    between atoms: _123  and  _124
REMARK   57  A    between atoms: _127  and  _129
REMARK   58  A    between atoms: _129  and  _130
REMARK   59  A    between atoms: _129  and  _132
REMARK   60  A    between atoms: _132  and  _133
REMARK   61  A    between atoms: _133  and  _134
REMARK   62  A    between atoms: _136  and  _138
REMARK   63  A    between atoms: _138  and  _139
REMARK   64  A    between atoms: _138  and  _141
REMARK   65  A    between atoms: _141  and  _142
REMARK   66  A    between atoms: _145  and  _147
REMARK   67  A    between atoms: _147  and  _148
REMARK   68  A    between atoms: _147  and  _150
REMARK   69  A    between atoms: _150  and  _151
REMARK   70  A    between atoms: _151  and  _152
REMARK   71  A    between atoms: _155  and  _157
REMARK   72  A    between atoms: _157  and  _158
REMARK   73  A    between atoms: _157  and  _160
REMARK   74  A    between atoms: _160  and  _161
REMARK   75  A    between atoms: _161  and  _163
REMARK   76  A    between atoms: _163  and  ZN_395
REMARK   77  A    between atoms: _164  and  _166
REMARK   78  A    between atoms: _166  and  _167
REMARK   79  A    between atoms: _166  and  _169
REMARK   80  A    between atoms: _171  and  _173
REMARK   81  A    between atoms: _173  and  _174
REMARK   82  A    between atoms: _177  and  _179
REMARK   83  A    between atoms: _179  and  _180
REMARK   84  A    between atoms: _183  and  _185
REMARK   85  A    between atoms: _185  and  _186
REMARK   86  A    between atoms: _185  and  _188
REMARK   87  A    between atoms: _188  and  _189
REMARK   88  A    between atoms: _189  and  _190
REMARK   89  A    between atoms: _193  and  _195
REMARK   90  A    between atoms: _195  and  _196
REMARK   91  A    between atoms: _195  and  _198
REMARK   92  A    between atoms: _198  and  _199
REMARK   93  A    between atoms: _199  and  _200
REMARK   94  A    between atoms: _200  and  _202
REMARK   95  A    between atoms: _202  and  ZN_395
REMARK   96  A    between atoms: _203  and  _205
REMARK   97  A    between atoms: _205  and  _206
REMARK   98  A    between atoms: _205  and  _208
REMARK   99  A    between atoms: _208  and  _209
REMARK  100  A    between atoms: _212  and  _214
REMARK  101  A    between atoms: _214  and  _215
REMARK  102  A    between atoms: _214  and  _217
REMARK  103  A    between atoms: _220  and  _222
REMARK  104  A    between atoms: _222  and  _223
REMARK  105  A    between atoms: _225  and  _227
REMARK  106  A    between atoms: _227  and  _228
REMARK  107  A    between atoms: _227  and  _230
REMARK  108  A    between atoms: _230  and  _231
REMARK  109  A    between atoms: _231  and  _233
REMARK  110  A    between atoms: _233  and  ZN_395
REMARK  111  A    between atoms: _234  and  _236
REMARK  112  A    between atoms: _236  and  _237
REMARK  113  A    between atoms: _236  and  _239
REMARK  114  A    between atoms: _239  and  _240
REMARK  115  A    between atoms: _243  and  _245
REMARK  116  A    between atoms: _245  and  _246
REMARK  117  A    between atoms: _245  and  _248
REMARK  118  A    between atoms: _248  and  _249
REMARK  119  A    between atoms: _252  and  _254
REMARK  120  A    between atoms: _254  and  _255
REMARK  121  A    between atoms: _254  and  _257
REMARK  122  A    between atoms: _257  and  _258
REMARK  123  A    between atoms: _261  and  _263
REMARK  124  A    between atoms: _263  and  _264
REMARK  125  A    between atoms: _263  and  _266
REMARK  126  A    between atoms: _266  and  _267
REMARK  127  A    between atoms: _267  and  _268
REMARK  128  A    between atoms: _268  and  _269
REMARK  129  A    between atoms: _269  and  _270
REMARK  130  A    between atoms: _274  and  _276
REMARK  131  A    between atoms: _276  and  _277
REMARK  132  A    between atoms: _276  and  _279
REMARK  133  A    between atoms: _279  and  _280
REMARK  134  A    between atoms: _285  and  _287
REMARK  135  A    between atoms: _287  and  _288
REMARK  136  A    between atoms: _287  and  _290
REMARK  137  A    between atoms: _290  and  _291
REMARK  138  A    between atoms: _291  and  _292
REMARK  139  A    between atoms: _297  and  _299
REMARK  140  A    between atoms: _299  and  _300
REMARK  141  A    between atoms: _299  and  _302
REMARK  142  A    between atoms: _302  and  _303
REMARK  143  A    between atoms: _303  and  _304
REMARK  144  A    between atoms: _306  and  _308
REMARK  145  A    between atoms: _308  and  _309
REMARK  146  A    between atoms: _308  and  _311
REMARK  147  A    between atoms: _311  and  _312
REMARK  148  A    between atoms: _314  and  _316
REMARK  149  A    between atoms: _316  and  _317
REMARK  150  A    between atoms: _316  and  _319
REMARK  151  A    between atoms: _319  and  _320
REMARK  152  A    between atoms: _325  and  _327
REMARK  153  A    between atoms: _327  and  _328
REMARK  154  A    between atoms: _327  and  _330
REMARK  155  A    between atoms: _330  and  _331
REMARK  156  A    between atoms: _331  and  _332
REMARK  157  A    between atoms: _332  and  _333
REMARK  158  A    between atoms: _342  and  _344
REMARK  159  A    between atoms: _344  and  _345
REMARK  160  A    between atoms: _344  and  _347
REMARK  161  A    between atoms: _347  and  _348
REMARK  162  A    between atoms: _350  and  _352
REMARK  163  A    between atoms: _352  and  _353
REMARK  164  A    between atoms: _355  and  _357
REMARK  165  A    between atoms: _357  and  _358
REMARK  166  A    between atoms: _357  and  _360
REMARK  167  A    between atoms: _360  and  _361
REMARK  168  A    between atoms: _361  and  _362
REMARK  169  A    between atoms: _365  and  _367
REMARK  170  A    between atoms: _367  and  _368
REMARK  171  A    between atoms: _367  and  _370
REMARK  172  A    between atoms: _370  and  _371
REMARK  173  A    between atoms: _371  and  _372
REMARK  174  A    between atoms: _372  and  _373
REMARK  175  A    between atoms: _373  and  _374
REMARK  176  A    between atoms: _378  and  _380
REMARK  177  A    between atoms: _380  and  _381
REMARK  178  A    between atoms: _380  and  _383
REMARK  179  A    between atoms: _383  and  _384
REMARK  180  A    between atoms: _384  and  _385
REMARK  181  A    between atoms: _385  and  _386
REMARK                            x       y       z     vdW  Elec       q    Type
REMARK                         _______ _______ _______ _____ _____    ______ ____
ROOT
ATOM      1  O   HOH     1       7.303  24.590  31.327  0.00  0.00    +0.000 OA
ENDROOT
TORSDOF 0
REMARK  Name = ../refined-set-2016/2ptz/2ptz_pocket.pdb
REMARK  181 active torsions:
REMARK  status: ('A' for Active; 'I' for Inactive)
REMARK    1  A    between atoms: _1  and  _3
REMARK    2  A    between atoms: _3  and  _4
REMARK    3  A    between atoms: _3  and  _6
REMARK    4  A    between atoms: _6  and  _7
REMARK    5  A    between atoms: _7  and  _8
REMARK    6  A    between atoms: _8  and  _9
REMARK    7  A    between atoms: _19  and  _20
REMARK    8  A    between atoms: _25  and  _27
REMARK    9  A    between atoms: _27  and  _28
REMARK   10  A    between atoms: _27  and  _30
REMARK   11  A    between atoms: _30  and  _31
REMARK   12  A    between atoms: _33  and  _35
REMARK   13  A    between atoms: _35  and  _36
REMARK   14  A    between atoms: _38  and  _40
REMARK   15  A    between atoms: _40  and  _41
REMARK   16  A    between atoms: _44  and  _46
REMARK   17  A    between atoms: _46  and  _47
REMARK   18  A    between atoms: _46  and  _49
REMARK   19  A    between atoms: _47  and  _48
REMARK   20  A    between atoms: _47  and  _52
REMARK   21  A    between atoms: _48  and  ZN_396
REMARK   22  A    between atoms: _49  and  _50
REMARK   23  A    between atoms: _52  and  _54
REMARK   24  A    between atoms: _54  and  _55
REMARK   25  A    between atoms: _54  and  _57
REMARK   26  A    between atoms: _57  and  _58
REMARK   27  A    between atoms: _61  and  _63
REMARK   28  A    between atoms: _63  and  _64
REMARK   29  A    between atoms: _66  and  _68
REMARK   30  A    between atoms: _68  and  _69
REMARK   31  A    between atoms: _68  and  _71
REMARK   32  A    between atoms: _71  and  _72
REMARK   33  A    between atoms: _72  and  _73
REMARK   34  A    between atoms: _76  and  _78
REMARK   35  A    between atoms: _78  and  _79
REMARK   36  A    between atoms: _78  and  _81
REMARK   37  A    between atoms: _81  and  _82
REMARK   38  A    between atoms: _87  and  _89
REMARK   39  A    between atoms: _89  and  _90
REMARK   40  A    between atoms: _92  and  _94
REMARK   41  A    between atoms: _94  and  _95
REMARK   42  A    between atoms: _94  and  _97
REMARK   43  A    between atoms: _97  and  _98
REMARK   44  A    between atoms: _98  and  _99
REMARK   45  A    between atoms: _99  and  _100
REMARK   46  A    between atoms: _100  and  _101
REMARK   47  A    between atoms: _105  and  _107
REMARK   48  A    between atoms: _107  and  _108
REMARK   49  A    between atoms: _107  and  _110
REMARK   50  A    between atoms: _110  and  _111
REMARK   51  A    between atoms: _111  and  _112
REMARK   52  A    between atoms: _117  and  _119
REMARK   53  A    between atoms: _119  and  _120
REMARK   54  A    between atoms: _119  and  _122
REMARK   55  A    between atoms: _122  and  _123
REMARK   56  A    between atoms: _123  and  _124
REMARK   57  A    between atoms: _127  and  _129
REMARK   58  A    between atoms: _129  and  _130
REMARK   59  A    between atoms: _129  and  _132
REMARK   60  A    between atoms: _132  and  _133
REMARK   61  A    between atoms: _133  and  _134
REMARK   62  A    between atoms: _136  and  _138
REMARK   63  A    between atoms: _138  and  _139
REMARK   64  A    between atoms: _138  and  _141
REMARK   65  A    between atoms: _141  and  _142
REMARK   66  A    between atoms: _145  and  _147
REMARK   67  A    between atoms: _147  and  _148
REMARK   68  A    between atoms: _147  and  _150
REMARK   69  A    between atoms: _150  and  _151
REMARK   70  A    between atoms: _151  and  _152
REMARK   71  A    between atoms: _155  and  _157
REMARK   72  A    between atoms: _157  and  _158
REMARK   73  A    between atoms: _157  and  _160
REMARK   74  A    between atoms: _160  and  _161
REMARK   75  A    between atoms: _161  and  _163
REMARK   76  A    between atoms: _163  and  ZN_395
REMARK   77  A    between atoms: _164  and  _166
REMARK   78  A    between atoms: _166  and  _167
REMARK   79  A    between atoms: _166  and  _169
REMARK   80  A    between atoms: _171  and  _173
REMARK   81  A    between atoms: _173  and  _174
REMARK   82  A    between atoms: _177  and  _179
REMARK   83  A    between atoms: _179  and  _180
REMARK   84  A    between atoms: _183  and  _185
REMARK   85  A    between atoms: _185  and  _186
REMARK   86  A    between atoms: _185  and  _188
REMARK   87  A    between atoms: _188  and  _189
REMARK   88  A    between atoms: _189  and  _190
REMARK   89  A    between atoms: _193  and  _195
REMARK   90  A    between atoms: _195  and  _196
REMARK   91  A    between atoms: _195  and  _198
REMARK   92  A    between atoms: _198  and  _199
REMARK   93  A    between atoms: _199  and  _200
REMARK   94  A    between atoms: _200  and  _202
REMARK   95  A    between atoms: _202  and  ZN_395
REMARK   96  A    between atoms: _203  and  _205
REMARK   97  A    between atoms: _205  and  _206
REMARK   98  A    between atoms: _205  and  _208
REMARK   99  A    between atoms: _208  and  _209
REMARK  100  A    between atoms: _212  and  _214
REMARK  101  A    between atoms: _214  and  _215
REMARK  102  A    between atoms: _214  and  _217
REMARK  103  A    between atoms: _220  and  _222
REMARK  104  A    between atoms: _222  and  _223
REMARK  105  A    between atoms: _225  and  _227
REMARK  106  A    between atoms: _227  and  _228
REMARK  107  A    between atoms: _227  and  _230
REMARK  108  A    between atoms: _230  and  _231
REMARK  109  A    between atoms: _231  and  _233
REMARK  110  A    between atoms: _233  and  ZN_395
REMARK  111  A    between atoms: _234  and  _236
REMARK  112  A    between atoms: _236  and  _237
REMARK  113  A    between atoms: _236  and  _239
REMARK  114  A    between atoms: _239  and  _240
REMARK  115  A    between atoms: _243  and  _245
REMARK  116  A    between atoms: _245  and  _246
REMARK  117  A    between atoms: _245  and  _248
REMARK  118  A    between atoms: _248  and  _249
REMARK  119  A    between atoms: _252  and  _254
REMARK  120  A    between atoms: _254  and  _255
REMARK  121  A    between atoms: _254  and  _257
REMARK  122  A    between atoms: _257  and  _258
REMARK  123  A    between atoms: _261  and  _263
REMARK  124  A    between atoms: _263  and  _264
REMARK  125  A    between atoms: _263  and  _266
REMARK  126  A    between atoms: _266  and  _267
REMARK  127  A    between atoms: _267  and  _268
REMARK  128  A    between atoms: _268  and  _269
REMARK  129  A    between atoms: _269  and  _270
REMARK  130  A    between atoms: _274  and  _276
REMARK  131  A    between atoms: _276  and  _277
REMARK  132  A    between atoms: _276  and  _279
REMARK  133  A    between atoms: _279  and  _280
REMARK  134  A    between atoms: _285  and  _287
REMARK  135  A    between atoms: _287  and  _288
REMARK  136  A    between atoms: _287  and  _290
REMARK  137  A    between atoms: _290  and  _291
REMARK  138  A    between atoms: _291  and  _292
REMARK  139  A    between atoms: _297  and  _299
REMARK  140  A    between atoms: _299  and  _300
REMARK  141  A    between atoms: _299  and  _302
REMARK  142  A    between atoms: _302  and  _303
REMARK  143  A    between atoms: _303  and  _304
REMARK  144  A    between atoms: _306  and  _308
REMARK  145  A    between atoms: _308  and  _309
REMARK  146  A    between atoms: _308  and  _311
REMARK  147  A    between atoms: _311  and  _312
REMARK  148  A    between atoms: _314  and  _316
REMARK  149  A    between atoms: _316  and  _317
REMARK  150  A    between atoms: _316  and  _319
REMARK  151  A    between atoms: _319  and  _320
REMARK  152  A    between atoms: _325  and  _327
REMARK  153  A    between atoms: _327  and  _328
REMARK  154  A    between atoms: _327  and  _330
REMARK  155  A    between atoms: _330  and  _331
REMARK  156  A    between atoms: _331  and  _332
REMARK  157  A    between atoms: _332  and  _333
REMARK  158  A    between atoms: _342  and  _344
REMARK  159  A    between atoms: _344  and  _345
REMARK  160  A    between atoms: _344  and  _347
REMARK  161  A    between atoms: _347  and  _348
REMARK  162  A    between atoms: _350  and  _352
REMARK  163  A    between atoms: _352  and  _353
REMARK  164  A    between atoms: _355  and  _357
REMARK  165  A    between atoms: _357  and  _358
REMARK  166  A    between atoms: _357  and  _360
REMARK  167  A    between atoms: _360  and  _361
REMARK  168  A    between atoms: _361  and  _362
REMARK  169  A    between atoms: _365  and  _367
REMARK  170  A    between atoms: _367  and  _368
REMARK  171  A    between atoms: _367  and  _370
REMARK  172  A    between atoms: _370  and  _371
REMARK  173  A    between atoms: _371  and  _372
REMARK  174  A    between atoms: _372  and  _373
REMARK  175  A    between atoms: _373  and  _374
REMARK  176  A    between atoms: _378  and  _380
REMARK  177  A    between atoms: _380  and  _381
REMARK  178  A    between atoms: _380  and  _383
REMARK  179  A    between atoms: _383  and  _384
REMARK  180  A    between atoms: _384  and  _385
REMARK  181  A    between atoms: _385  and  _386
REMARK                            x       y       z     vdW  Elec       q    Type
REMARK                         _______ _______ _______ _____ _____    ______ ____
ROOT
ATOM      1  O   HOH     1       9.290  25.748  35.913  0.00  0.00    +0.000 OA
ENDROOT
TORSDOF 0
REMARK  Name = ../refined-set-2016/2ptz/2ptz_pocket.pdb
REMARK  181 active torsions:
REMARK  status: ('A' for Active; 'I' for Inactive)
REMARK    1  A    between atoms: _1  and  _3
REMARK    2  A    between atoms: _3  and  _4
REMARK    3  A    between atoms: _3  and  _6
REMARK    4  A    between atoms: _6  and  _7
REMARK    5  A    between atoms: _7  and  _8
REMARK    6  A    between atoms: _8  and  _9
REMARK    7  A    between atoms: _19  and  _20
REMARK    8  A    between atoms: _25  and  _27
REMARK    9  A    between atoms: _27  and  _28
REMARK   10  A    between atoms: _27  and  _30
REMARK   11  A    between atoms: _30  and  _31
REMARK   12  A    between atoms: _33  and  _35
REMARK   13  A    between atoms: _35  and  _36
REMARK   14  A    between atoms: _38  and  _40
REMARK   15  A    between atoms: _40  and  _41
REMARK   16  A    between atoms: _44  and  _46
REMARK   17  A    between atoms: _46  and  _47
REMARK   18  A    between atoms: _46  and  _49
REMARK   19  A    between atoms: _47  and  _48
REMARK   20  A    between atoms: _47  and  _52
REMARK   21  A    between atoms: _48  and  ZN_396
REMARK   22  A    between atoms: _49  and  _50
REMARK   23  A    between atoms: _52  and  _54
REMARK   24  A    between atoms: _54  and  _55
REMARK   25  A    between atoms: _54  and  _57
REMARK   26  A    between atoms: _57  and  _58
REMARK   27  A    between atoms: _61  and  _63
REMARK   28  A    between atoms: _63  and  _64
REMARK   29  A    between atoms: _66  and  _68
REMARK   30  A    between atoms: _68  and  _69
REMARK   31  A    between atoms: _68  and  _71
REMARK   32  A    between atoms: _71  and  _72
REMARK   33  A    between atoms: _72  and  _73
REMARK   34  A    between atoms: _76  and  _78
REMARK   35  A    between atoms: _78  and  _79
REMARK   36  A    between atoms: _78  and  _81
REMARK   37  A    between atoms: _81  and  _82
REMARK   38  A    between atoms: _87  and  _89
REMARK   39  A    between atoms: _89  and  _90
REMARK   40  A    between atoms: _92  and  _94
REMARK   41  A    between atoms: _94  and  _95
REMARK   42  A    between atoms: _94  and  _97
REMARK   43  A    between atoms: _97  and  _98
REMARK   44  A    between atoms: _98  and  _99
REMARK   45  A    between atoms: _99  and  _100
REMARK   46  A    between atoms: _100  and  _101
REMARK   47  A    between atoms: _105  and  _107
REMARK   48  A    between atoms: _107  and  _108
REMARK   49  A    between atoms: _107  and  _110
REMARK   50  A    between atoms: _110  and  _111
REMARK   51  A    between atoms: _111  and  _112
REMARK   52  A    between atoms: _117  and  _119
REMARK   53  A    between atoms: _119  and  _120
REMARK   54  A    between atoms: _119  and  _122
REMARK   55  A    between atoms: _122  and  _123
REMARK   56  A    between atoms: _123  and  _124
REMARK   57  A    between atoms: _127  and  _129
REMARK   58  A    between atoms: _129  and  _130
REMARK   59  A    between atoms: _129  and  _132
REMARK   60  A    between atoms: _132  and  _133
REMARK   61  A    between atoms: _133  and  _134
REMARK   62  A    between atoms: _136  and  _138
REMARK   63  A    between atoms: _138  and  _139
REMARK   64  A    between atoms: _138  and  _141
REMARK   65  A    between atoms: _141  and  _142
REMARK   66  A    between atoms: _145  and  _147
REMARK   67  A    between atoms: _147  and  _148
REMARK   68  A    between atoms: _147  and  _150
REMARK   69  A    between atoms: _150  and  _151
REMARK   70  A    between atoms: _151  and  _152
REMARK   71  A    between atoms: _155  and  _157
REMARK   72  A    between atoms: _157  and  _158
REMARK   73  A    between atoms: _157  and  _160
REMARK   74  A    between atoms: _160  and  _161
REMARK   75  A    between atoms: _161  and  _163
REMARK   76  A    between atoms: _163  and  ZN_395
REMARK   77  A    between atoms: _164  and  _166
REMARK   78  A    between atoms: _166  and  _167
REMARK   79  A    between atoms: _166  and  _169
REMARK   80  A    between atoms: _171  and  _173
REMARK   81  A    between atoms: _173  and  _174
REMARK   82  A    between atoms: _177  and  _179
REMARK   83  A    between atoms: _179  and  _180
REMARK   84  A    between atoms: _183  and  _185
REMARK   85  A    between atoms: _185  and  _186
REMARK   86  A    between atoms: _185  and  _188
REMARK   87  A    between atoms: _188  and  _189
REMARK   88  A    between atoms: _189  and  _190
REMARK   89  A    between atoms: _193  and  _195
REMARK   90  A    between atoms: _195  and  _196
REMARK   91  A    between atoms: _195  and  _198
REMARK   92  A    between atoms: _198  and  _199
REMARK   93  A    between atoms: _199  and  _200
REMARK   94  A    between atoms: _200  and  _202
REMARK   95  A    between atoms: _202  and  ZN_395
REMARK   96  A    between atoms: _203  and  _205
REMARK   97  A    between atoms: _205  and  _206
REMARK   98  A    between atoms: _205  and  _208
REMARK   99  A    between atoms: _208  and  _209
REMARK  100  A    between atoms: _212  and  _214
REMARK  101  A    between atoms: _214  and  _215
REMARK  102  A    between atoms: _214  and  _217
REMARK  103  A    between atoms: _220  and  _222
REMARK  104  A    between atoms: _222  and  _223
REMARK  105  A    between atoms: _225  and  _227
REMARK  106  A    between atoms: _227  and  _228
REMARK  107  A    between atoms: _227  and  _230
REMARK  108  A    between atoms: _230  and  _231
REMARK  109  A    between atoms: _231  and  _233
REMARK  110  A    between atoms: _233  and  ZN_395
REMARK  111  A    between atoms: _234  and  _236
REMARK  112  A    between atoms: _236  and  _237
REMARK  113  A    between atoms: _236  and  _239
REMARK  114  A    between atoms: _239  and  _240
REMARK  115  A    between atoms: _243  and  _245
REMARK  116  A    between atoms: _245  and  _246
REMARK  117  A    between atoms: _245  and  _248
REMARK  118  A    between atoms: _248  and  _249
REMARK  119  A    between atoms: _252  and  _254
REMARK  120  A    between atoms: _254  and  _255
REMARK  121  A    between atoms: _254  and  _257
REMARK  122  A    between atoms: _257  and  _258
REMARK  123  A    between atoms: _261  and  _263
REMARK  124  A    between atoms: _263  and  _264
REMARK  125  A    between atoms: _263  and  _266
REMARK  126  A    between atoms: _266  and  _267
REMARK  127  A    between atoms: _267  and  _268
REMARK  128  A    between atoms: _268  and  _269
REMARK  129  A    between atoms: _269  and  _270
REMARK  130  A    between atoms: _274  and  _276
REMARK  131  A    between atoms: _276  and  _277
REMARK  132  A    between atoms: _276  and  _279
REMARK  133  A    between atoms: _279  and  _280
REMARK  134  A    between atoms: _285  and  _287
REMARK  135  A    between atoms: _287  and  _288
REMARK  136  A    between atoms: _287  and  _290
REMARK  137  A    between atoms: _290  and  _291
REMARK  138  A    between atoms: _291  and  _292
REMARK  139  A    between atoms: _297  and  _299
REMARK  140  A    between atoms: _299  and  _300
REMARK  141  A    between atoms: _299  and  _302
REMARK  142  A    between atoms: _302  and  _303
REMARK  143  A    between atoms: _303  and  _304
REMARK  144  A    between atoms: _306  and  _308
REMARK  145  A    between atoms: _308  and  _309
REMARK  146  A    between atoms: _308  and  _311
REMARK  147  A    between atoms: _311  and  _312
REMARK  148  A    between atoms: _314  and  _316
REMARK  149  A    between atoms: _316  and  _317
REMARK  150  A    between atoms: _316  and  _319
REMARK  151  A    between atoms: _319  and  _320
REMARK  152  A    between atoms: _325  and  _327
REMARK  153  A    between atoms: _327  and  _328
REMARK  154  A    between atoms: _327  and  _330
REMARK  155  A    between atoms: _330  and  _331
REMARK  156  A    between atoms: _331  and  _332
REMARK  157  A    between atoms: _332  and  _333
REMARK  158  A    between atoms: _342  and  _344
REMARK  159  A    between atoms: _344  and  _345
REMARK  160  A    between atoms: _344  and  _347
REMARK  161  A    between atoms: _347  and  _348
REMARK  162  A    between atoms: _350  and  _352
REMARK  163  A    between atoms: _352  and  _353
REMARK  164  A    between atoms: _355  and  _357
REMARK  165  A    between atoms: _357  and  _358
REMARK  166  A    between atoms: _357  and  _360
REMARK  167  A    between atoms: _360  and  _361
REMARK  168  A    between atoms: _361  and  _362
REMARK  169  A    between atoms: _365  and  _367
REMARK  170  A    between atoms: _367  and  _368
REMARK  171  A    between atoms: _367  and  _370
REMARK  172  A    between atoms: _370  and  _371
REMARK  173  A    between atoms: _371  and  _372
REMARK  174  A    between atoms: _372  and  _373
REMARK  175  A    between atoms: _373  and  _374
REMARK  176  A    between atoms: _378  and  _380
REMARK  177  A    between atoms: _380  and  _381
REMARK  178  A    between atoms: _380  and  _383
REMARK  179  A    between atoms: _383  and  _384
REMARK  180  A    between atoms: _384  and  _385
REMARK  181  A    between atoms: _385  and  _386
REMARK                            x       y       z     vdW  Elec       q    Type
REMARK                         _______ _______ _______ _____ _____    ______ ____
ROOT
ATOM      1  O   HOH     1       4.018  27.843  41.624  0.00  0.00    +0.000 OA
ENDROOT
TORSDOF 0
REMARK  Name = ../refined-set-2016/2ptz/2ptz_pocket.pdb
REMARK  181 active torsions:
REMARK  status: ('A' for Active; 'I' for Inactive)
REMARK    1  A    between atoms: _1  and  _3
REMARK    2  A    between atoms: _3  and  _4
REMARK    3  A    between atoms: _3  and  _6
REMARK    4  A    between atoms: _6  and  _7
REMARK    5  A    between atoms: _7  and  _8
REMARK    6  A    between atoms: _8  and  _9
REMARK    7  A    between atoms: _19  and  _20
REMARK    8  A    between atoms: _25  and  _27
REMARK    9  A    between atoms: _27  and  _28
REMARK   10  A    between atoms: _27  and  _30
REMARK   11  A    between atoms: _30  and  _31
REMARK   12  A    between atoms: _33  and  _35
REMARK   13  A    between atoms: _35  and  _36
REMARK   14  A    between atoms: _38  and  _40
REMARK   15  A    between atoms: _40  and  _41
REMARK   16  A    between atoms: _44  and  _46
REMARK   17  A    between atoms: _46  and  _47
REMARK   18  A    between atoms: _46  and  _49
REMARK   19  A    between atoms: _47  and  _48
REMARK   20  A    between atoms: _47  and  _52
REMARK   21  A    between atoms: _48  and  ZN_396
REMARK   22  A    between atoms: _49  and  _50
REMARK   23  A    between atoms: _52  and  _54
REMARK   24  A    between atoms: _54  and  _55
REMARK   25  A    between atoms: _54  and  _57
REMARK   26  A    between atoms: _57  and  _58
REMARK   27  A    between atoms: _61  and  _63
REMARK   28  A    between atoms: _63  and  _64
REMARK   29  A    between atoms: _66  and  _68
REMARK   30  A    between atoms: _68  and  _69
REMARK   31  A    between atoms: _68  and  _71
REMARK   32  A    between atoms: _71  and  _72
REMARK   33  A    between atoms: _72  and  _73
REMARK   34  A    between atoms: _76  and  _78
REMARK   35  A    between atoms: _78  and  _79
REMARK   36  A    between atoms: _78  and  _81
REMARK   37  A    between atoms: _81  and  _82
REMARK   38  A    between atoms: _87  and  _89
REMARK   39  A    between atoms: _89  and  _90
REMARK   40  A    between atoms: _92  and  _94
REMARK   41  A    between atoms: _94  and  _95
REMARK   42  A    between atoms: _94  and  _97
REMARK   43  A    between atoms: _97  and  _98
REMARK   44  A    between atoms: _98  and  _99
REMARK   45  A    between atoms: _99  and  _100
REMARK   46  A    between atoms: _100  and  _101
REMARK   47  A    between atoms: _105  and  _107
REMARK   48  A    between atoms: _107  and  _108
REMARK   49  A    between atoms: _107  and  _110
REMARK   50  A    between atoms: _110  and  _111
REMARK   51  A    between atoms: _111  and  _112
REMARK   52  A    between atoms: _117  and  _119
REMARK   53  A    between atoms: _119  and  _120
REMARK   54  A    between atoms: _119  and  _122
REMARK   55  A    between atoms: _122  and  _123
REMARK   56  A    between atoms: _123  and  _124
REMARK   57  A    between atoms: _127  and  _129
REMARK   58  A    between atoms: _129  and  _130
REMARK   59  A    between atoms: _129  and  _132
REMARK   60  A    between atoms: _132  and  _133
REMARK   61  A    between atoms: _133  and  _134
REMARK   62  A    between atoms: _136  and  _138
REMARK   63  A    between atoms: _138  and  _139
REMARK   64  A    between atoms: _138  and  _141
REMARK   65  A    between atoms: _141  and  _142
REMARK   66  A    between atoms: _145  and  _147
REMARK   67  A    between atoms: _147  and  _148
REMARK   68  A    between atoms: _147  and  _150
REMARK   69  A    between atoms: _150  and  _151
REMARK   70  A    between atoms: _151  and  _152
REMARK   71  A    between atoms: _155  and  _157
REMARK   72  A    between atoms: _157  and  _158
REMARK   73  A    between atoms: _157  and  _160
REMARK   74  A    between atoms: _160  and  _161
REMARK   75  A    between atoms: _161  and  _163
REMARK   76  A    between atoms: _163  and  ZN_395
REMARK   77  A    between atoms: _164  and  _166
REMARK   78  A    between atoms: _166  and  _167
REMARK   79  A    between atoms: _166  and  _169
REMARK   80  A    between atoms: _171  and  _173
REMARK   81  A    between atoms: _173  and  _174
REMARK   82  A    between atoms: _177  and  _179
REMARK   83  A    between atoms: _179  and  _180
REMARK   84  A    between atoms: _183  and  _185
REMARK   85  A    between atoms: _185  and  _186
REMARK   86  A    between atoms: _185  and  _188
REMARK   87  A    between atoms: _188  and  _189
REMARK   88  A    between atoms: _189  and  _190
REMARK   89  A    between atoms: _193  and  _195
REMARK   90  A    between atoms: _195  and  _196
REMARK   91  A    between atoms: _195  and  _198
REMARK   92  A    between atoms: _198  and  _199
REMARK   93  A    between atoms: _199  and  _200
REMARK   94  A    between atoms: _200  and  _202
REMARK   95  A    between atoms: _202  and  ZN_395
REMARK   96  A    between atoms: _203  and  _205
REMARK   97  A    between atoms: _205  and  _206
REMARK   98  A    between atoms: _205  and  _208
REMARK   99  A    between atoms: _208  and  _209
REMARK  100  A    between atoms: _212  and  _214
REMARK  101  A    between atoms: _214  and  _215
REMARK  102  A    between atoms: _214  and  _217
REMARK  103  A    between atoms: _220  and  _222
REMARK  104  A    between atoms: _222  and  _223
REMARK  105  A    between atoms: _225  and  _227
REMARK  106  A    between atoms: _227  and  _228
REMARK  107  A    between atoms: _227  and  _230
REMARK  108  A    between atoms: _230  and  _231
REMARK  109  A    between atoms: _231  and  _233
REMARK  110  A    between atoms: _233  and  ZN_395
REMARK  111  A    between atoms: _234  and  _236
REMARK  112  A    between atoms: _236  and  _237
REMARK  113  A    between atoms: _236  and  _239
REMARK  114  A    between atoms: _239  and  _240
REMARK  115  A    between atoms: _243  and  _245
REMARK  116  A    between atoms: _245  and  _246
REMARK  117  A    between atoms: _245  and  _248
REMARK  118  A    between atoms: _248  and  _249
REMARK  119  A    between atoms: _252  and  _254
REMARK  120  A    between atoms: _254  and  _255
REMARK  121  A    between atoms: _254  and  _257
REMARK  122  A    between atoms: _257  and  _258
REMARK  123  A    between atoms: _261  and  _263
REMARK  124  A    between atoms: _263  and  _264
REMARK  125  A    between atoms: _263  and  _266
REMARK  126  A    between atoms: _266  and  _267
REMARK  127  A    between atoms: _267  and  _268
REMARK  128  A    between atoms: _268  and  _269
REMARK  129  A    between atoms: _269  and  _270
REMARK  130  A    between atoms: _274  and  _276
REMARK  131  A    between atoms: _276  and  _277
REMARK  132  A    between atoms: _276  and  _279
REMARK  133  A    between atoms: _279  and  _280
REMARK  134  A    between atoms: _285  and  _287
REMARK  135  A    between atoms: _287  and  _288
REMARK  136  A    between atoms: _287  and  _290
REMARK  137  A    between atoms: _290  and  _291
REMARK  138  A    between atoms: _291  and  _292
REMARK  139  A    between atoms: _297  and  _299
REMARK  140  A    between atoms: _299  and  _300
REMARK  141  A    between atoms: _299  and  _302
REMARK  142  A    between atoms: _302  and  _303
REMARK  143  A    between atoms: _303  and  _304
REMARK  144  A    between atoms: _306  and  _308
REMARK  145  A    between atoms: _308  and  _309
REMARK  146  A    between atoms: _308  and  _311
REMARK  147  A    between atoms: _311  and  _312
REMARK  148  A    between atoms: _314  and  _316
REMARK  149  A    between atoms: _316  and  _317
REMARK  150  A    between atoms: _316  and  _319
REMARK  151  A    between atoms: _319  and  _320
REMARK  152  A    between atoms: _325  and  _327
REMARK  153  A    between atoms: _327  and  _328
REMARK  154  A    between atoms: _327  and  _330
REMARK  155  A    between atoms: _330  and  _331
REMARK  156  A    between atoms: _331  and  _332
REMARK  157  A    between atoms: _332  and  _333
REMARK  158  A    between atoms: _342  and  _344
REMARK  159  A    between atoms: _344  and  _345
REMARK  160  A    between atoms: _344  and  _347
REMARK  161  A    between atoms: _347  and  _348
REMARK  162  A    between atoms: _350  and  _352
REMARK  163  A    between atoms: _352  and  _353
REMARK  164  A    between atoms: _355  and  _357
REMARK  165  A    between atoms: _357  and  _358
REMARK  166  A    between atoms: _357  and  _360
REMARK  167  A    between atoms: _360  and  _361
REMARK  168  A    between atoms: _361  and  _362
REMARK  169  A    between atoms: _365  and  _367
REMARK  170  A    between atoms: _367  and  _368
REMARK  171  A    between atoms: _367  and  _370
REMARK  172  A    between atoms: _370  and  _371
REMARK  173  A    between atoms: _371  and  _372
REMARK  174  A    between atoms: _372  and  _373
REMARK  175  A    between atoms: _373  and  _374
REMARK  176  A    between atoms: _378  and  _380
REMARK  177  A    between atoms: _380  and  _381
REMARK  178  A    between atoms: _380  and  _383
REMARK  179  A    between atoms: _383  and  _384
REMARK  180  A    between atoms: _384  and  _385
REMARK  181  A    between atoms: _385  and  _386
REMARK                            x       y       z     vdW  Elec       q    Type
REMARK                         _______ _______ _______ _____ _____    ______ ____
ROOT
ATOM      1  O   HOH     1      13.903  20.155  37.563  0.00  0.00    +0.000 OA
ENDROOT
TORSDOF 0
REMARK  Name = ../refined-set-2016/2ptz/2ptz_pocket.pdb
REMARK  181 active torsions:
REMARK  status: ('A' for Active; 'I' for Inactive)
REMARK    1  A    between atoms: _1  and  _3
REMARK    2  A    between atoms: _3  and  _4
REMARK    3  A    between atoms: _3  and  _6
REMARK    4  A    between atoms: _6  and  _7
REMARK    5  A    between atoms: _7  and  _8
REMARK    6  A    between atoms: _8  and  _9
REMARK    7  A    between atoms: _19  and  _20
REMARK    8  A    between atoms: _25  and  _27
REMARK    9  A    between atoms: _27  and  _28
REMARK   10  A    between atoms: _27  and  _30
REMARK   11  A    between atoms: _30  and  _31
REMARK   12  A    between atoms: _33  and  _35
REMARK   13  A    between atoms: _35  and  _36
REMARK   14  A    between atoms: _38  and  _40
REMARK   15  A    between atoms: _40  and  _41
REMARK   16  A    between atoms: _44  and  _46
REMARK   17  A    between atoms: _46  and  _47
REMARK   18  A    between atoms: _46  and  _49
REMARK   19  A    between atoms: _47  and  _48
REMARK   20  A    between atoms: _47  and  _52
REMARK   21  A    between atoms: _48  and  ZN_396
REMARK   22  A    between atoms: _49  and  _50
REMARK   23  A    between atoms: _52  and  _54
REMARK   24  A    between atoms: _54  and  _55
REMARK   25  A    between atoms: _54  and  _57
REMARK   26  A    between atoms: _57  and  _58
REMARK   27  A    between atoms: _61  and  _63
REMARK   28  A    between atoms: _63  and  _64
REMARK   29  A    between atoms: _66  and  _68
REMARK   30  A    between atoms: _68  and  _69
REMARK   31  A    between atoms: _68  and  _71
REMARK   32  A    between atoms: _71  and  _72
REMARK   33  A    between atoms: _72  and  _73
REMARK   34  A    between atoms: _76  and  _78
REMARK   35  A    between atoms: _78  and  _79
REMARK   36  A    between atoms: _78  and  _81
REMARK   37  A    between atoms: _81  and  _82
REMARK   38  A    between atoms: _87  and  _89
REMARK   39  A    between atoms: _89  and  _90
REMARK   40  A    between atoms: _92  and  _94
REMARK   41  A    between atoms: _94  and  _95
REMARK   42  A    between atoms: _94  and  _97
REMARK   43  A    between atoms: _97  and  _98
REMARK   44  A    between atoms: _98  and  _99
REMARK   45  A    between atoms: _99  and  _100
REMARK   46  A    between atoms: _100  and  _101
REMARK   47  A    between atoms: _105  and  _107
REMARK   48  A    between atoms: _107  and  _108
REMARK   49  A    between atoms: _107  and  _110
REMARK   50  A    between atoms: _110  and  _111
REMARK   51  A    between atoms: _111  and  _112
REMARK   52  A    between atoms: _117  and  _119
REMARK   53  A    between atoms: _119  and  _120
REMARK   54  A    between atoms: _119  and  _122
REMARK   55  A    between atoms: _122  and  _123
REMARK   56  A    between atoms: _123  and  _124
REMARK   57  A    between atoms: _127  and  _129
REMARK   58  A    between atoms: _129  and  _130
REMARK   59  A    between atoms: _129  and  _132
REMARK   60  A    between atoms: _132  and  _133
REMARK   61  A    between atoms: _133  and  _134
REMARK   62  A    between atoms: _136  and  _138
REMARK   63  A    between atoms: _138  and  _139
REMARK   64  A    between atoms: _138  and  _141
REMARK   65  A    between atoms: _141  and  _142
REMARK   66  A    between atoms: _145  and  _147
REMARK   67  A    between atoms: _147  and  _148
REMARK   68  A    between atoms: _147  and  _150
REMARK   69  A    between atoms: _150  and  _151
REMARK   70  A    between atoms: _151  and  _152
REMARK   71  A    between atoms: _155  and  _157
REMARK   72  A    between atoms: _157  and  _158
REMARK   73  A    between atoms: _157  and  _160
REMARK   74  A    between atoms: _160  and  _161
REMARK   75  A    between atoms: _161  and  _163
REMARK   76  A    between atoms: _163  and  ZN_395
REMARK   77  A    between atoms: _164  and  _166
REMARK   78  A    between atoms: _166  and  _167
REMARK   79  A    between atoms: _166  and  _169
REMARK   80  A    between atoms: _171  and  _173
REMARK   81  A    between atoms: _173  and  _174
REMARK   82  A    between atoms: _177  and  _179
REMARK   83  A    between atoms: _179  and  _180
REMARK   84  A    between atoms: _183  and  _185
REMARK   85  A    between atoms: _185  and  _186
REMARK   86  A    between atoms: _185  and  _188
REMARK   87  A    between atoms: _188  and  _189
REMARK   88  A    between atoms: _189  and  _190
REMARK   89  A    between atoms: _193  and  _195
REMARK   90  A    between atoms: _195  and  _196
REMARK   91  A    between atoms: _195  and  _198
REMARK   92  A    between atoms: _198  and  _199
REMARK   93  A    between atoms: _199  and  _200
REMARK   94  A    between atoms: _200  and  _202
REMARK   95  A    between atoms: _202  and  ZN_395
REMARK   96  A    between atoms: _203  and  _205
REMARK   97  A    between atoms: _205  and  _206
REMARK   98  A    between atoms: _205  and  _208
REMARK   99  A    between atoms: _208  and  _209
REMARK  100  A    between atoms: _212  and  _214
REMARK  101  A    between atoms: _214  and  _215
REMARK  102  A    between atoms: _214  and  _217
REMARK  103  A    between atoms: _220  and  _222
REMARK  104  A    between atoms: _222  and  _223
REMARK  105  A    between atoms: _225  and  _227
REMARK  106  A    between atoms: _227  and  _228
REMARK  107  A    between atoms: _227  and  _230
REMARK  108  A    between atoms: _230  and  _231
REMARK  109  A    between atoms: _231  and  _233
REMARK  110  A    between atoms: _233  and  ZN_395
REMARK  111  A    between atoms: _234  and  _236
REMARK  112  A    between atoms: _236  and  _237
REMARK  113  A    between atoms: _236  and  _239
REMARK  114  A    between atoms: _239  and  _240
REMARK  115  A    between atoms: _243  and  _245
REMARK  116  A    between atoms: _245  and  _246
REMARK  117  A    between atoms: _245  and  _248
REMARK  118  A    between atoms: _248  and  _249
REMARK  119  A    between atoms: _252  and  _254
REMARK  120  A    between atoms: _254  and  _255
REMARK  121  A    between atoms: _254  and  _257
REMARK  122  A    between atoms: _257  and  _258
REMARK  123  A    between atoms: _261  and  _263
REMARK  124  A    between atoms: _263  and  _264
REMARK  125  A    between atoms: _263  and  _266
REMARK  126  A    between atoms: _266  and  _267
REMARK  127  A    between atoms: _267  and  _268
REMARK  128  A    between atoms: _268  and  _269
REMARK  129  A    between atoms: _269  and  _270
REMARK  130  A    between atoms: _274  and  _276
REMARK  131  A    between atoms: _276  and  _277
REMARK  132  A    between atoms: _276  and  _279
REMARK  133  A    between atoms: _279  and  _280
REMARK  134  A    between atoms: _285  and  _287
REMARK  135  A    between atoms: _287  and  _288
REMARK  136  A    between atoms: _287  and  _290
REMARK  137  A    between atoms: _290  and  _291
REMARK  138  A    between atoms: _291  and  _292
REMARK  139  A    between atoms: _297  and  _299
REMARK  140  A    between atoms: _299  and  _300
REMARK  141  A    between atoms: _299  and  _302
REMARK  142  A    between atoms: _302  and  _303
REMARK  143  A    between atoms: _303  and  _304
REMARK  144  A    between atoms: _306  and  _308
REMARK  145  A    between atoms: _308  and  _309
REMARK  146  A    between atoms: _308  and  _311
REMARK  147  A    between atoms: _311  and  _312
REMARK  148  A    between atoms: _314  and  _316
REMARK  149  A    between atoms: _316  and  _317
REMARK  150  A    between atoms: _316  and  _319
REMARK  151  A    between atoms: _319  and  _320
REMARK  152  A    between atoms: _325  and  _327
REMARK  153  A    between atoms: _327  and  _328
REMARK  154  A    between atoms: _327  and  _330
REMARK  155  A    between atoms: _330  and  _331
REMARK  156  A    between atoms: _331  and  _332
REMARK  157  A    between atoms: _332  and  _333
REMARK  158  A    between atoms: _342  and  _344
REMARK  159  A    between atoms: _344  and  _345
REMARK  160  A    between atoms: _344  and  _347
REMARK  161  A    between atoms: _347  and  _348
REMARK  162  A    between atoms: _350  and  _352
REMARK  163  A    between atoms: _352  and  _353
REMARK  164  A    between atoms: _355  and  _357
REMARK  165  A    between atoms: _357  and  _358
REMARK  166  A    between atoms: _357  and  _360
REMARK  167  A    between atoms: _360  and  _361
REMARK  168  A    between atoms: _361  and  _362
REMARK  169  A    between atoms: _365  and  _367
REMARK  170  A    between atoms: _367  and  _368
REMARK  171  A    between atoms: _367  and  _370
REMARK  172  A    between atoms: _370  and  _371
REMARK  173  A    between atoms: _371  and  _372
REMARK  174  A    between atoms: _372  and  _373
REMARK  175  A    between atoms: _373  and  _374
REMARK  176  A    between atoms: _378  and  _380
REMARK  177  A    between atoms: _380  and  _381
REMARK  178  A    between atoms: _380  and  _383
REMARK  179  A    between atoms: _383  and  _384
REMARK  180  A    between atoms: _384  and  _385
REMARK  181  A    between atoms: _385  and  _386
REMARK                            x       y       z     vdW  Elec       q    Type
REMARK                         _______ _______ _______ _____ _____    ______ ____
ROOT
ATOM      1  O   HOH     1       3.175  25.862  39.855  0.00  0.00    +0.000 OA
ENDROOT
TORSDOF 0
REMARK  Name = ../refined-set-2016/2ptz/2ptz_pocket.pdb
REMARK  181 active torsions:
REMARK  status: ('A' for Active; 'I' for Inactive)
REMARK    1  A    between atoms: _1  and  _3
REMARK    2  A    between atoms: _3  and  _4
REMARK    3  A    between atoms: _3  and  _6
REMARK    4  A    between atoms: _6  and  _7
REMARK    5  A    between atoms: _7  and  _8
REMARK    6  A    between atoms: _8  and  _9
REMARK    7  A    between atoms: _19  and  _20
REMARK    8  A    between atoms: _25  and  _27
REMARK    9  A    between atoms: _27  and  _28
REMARK   10  A    between atoms: _27  and  _30
REMARK   11  A    between atoms: _30  and  _31
REMARK   12  A    between atoms: _33  and  _35
REMARK   13  A    between atoms: _35  and  _36
REMARK   14  A    between atoms: _38  and  _40
REMARK   15  A    between atoms: _40  and  _41
REMARK   16  A    between atoms: _44  and  _46
REMARK   17  A    between atoms: _46  and  _47
REMARK   18  A    between atoms: _46  and  _49
REMARK   19  A    between atoms: _47  and  _48
REMARK   20  A    between atoms: _47  and  _52
REMARK   21  A    between atoms: _48  and  ZN_396
REMARK   22  A    between atoms: _49  and  _50
REMARK   23  A    between atoms: _52  and  _54
REMARK   24  A    between atoms: _54  and  _55
REMARK   25  A    between atoms: _54  and  _57
REMARK   26  A    between atoms: _57  and  _58
REMARK   27  A    between atoms: _61  and  _63
REMARK   28  A    between atoms: _63  and  _64
REMARK   29  A    between atoms: _66  and  _68
REMARK   30  A    between atoms: _68  and  _69
REMARK   31  A    between atoms: _68  and  _71
REMARK   32  A    between atoms: _71  and  _72
REMARK   33  A    between atoms: _72  and  _73
REMARK   34  A    between atoms: _76  and  _78
REMARK   35  A    between atoms: _78  and  _79
REMARK   36  A    between atoms: _78  and  _81
REMARK   37  A    between atoms: _81  and  _82
REMARK   38  A    between atoms: _87  and  _89
REMARK   39  A    between atoms: _89  and  _90
REMARK   40  A    between atoms: _92  and  _94
REMARK   41  A    between atoms: _94  and  _95
REMARK   42  A    between atoms: _94  and  _97
REMARK   43  A    between atoms: _97  and  _98
REMARK   44  A    between atoms: _98  and  _99
REMARK   45  A    between atoms: _99  and  _100
REMARK   46  A    between atoms: _100  and  _101
REMARK   47  A    between atoms: _105  and  _107
REMARK   48  A    between atoms: _107  and  _108
REMARK   49  A    between atoms: _107  and  _110
REMARK   50  A    between atoms: _110  and  _111
REMARK   51  A    between atoms: _111  and  _112
REMARK   52  A    between atoms: _117  and  _119
REMARK   53  A    between atoms: _119  and  _120
REMARK   54  A    between atoms: _119  and  _122
REMARK   55  A    between atoms: _122  and  _123
REMARK   56  A    between atoms: _123  and  _124
REMARK   57  A    between atoms: _127  and  _129
REMARK   58  A    between atoms: _129  and  _130
REMARK   59  A    between atoms: _129  and  _132
REMARK   60  A    between atoms: _132  and  _133
REMARK   61  A    between atoms: _133  and  _134
REMARK   62  A    between atoms: _136  and  _138
REMARK   63  A    between atoms: _138  and  _139
REMARK   64  A    between atoms: _138  and  _141
REMARK   65  A    between atoms: _141  and  _142
REMARK   66  A    between atoms: _145  and  _147
REMARK   67  A    between atoms: _147  and  _148
REMARK   68  A    between atoms: _147  and  _150
REMARK   69  A    between atoms: _150  and  _151
REMARK   70  A    between atoms: _151  and  _152
REMARK   71  A    between atoms: _155  and  _157
REMARK   72  A    between atoms: _157  and  _158
REMARK   73  A    between atoms: _157  and  _160
REMARK   74  A    between atoms: _160  and  _161
REMARK   75  A    between atoms: _161  and  _163
REMARK   76  A    between atoms: _163  and  ZN_395
REMARK   77  A    between atoms: _164  and  _166
REMARK   78  A    between atoms: _166  and  _167
REMARK   79  A    between atoms: _166  and  _169
REMARK   80  A    between atoms: _171  and  _173
REMARK   81  A    between atoms: _173  and  _174
REMARK   82  A    between atoms: _177  and  _179
REMARK   83  A    between atoms: _179  and  _180
REMARK   84  A    between atoms: _183  and  _185
REMARK   85  A    between atoms: _185  and  _186
REMARK   86  A    between atoms: _185  and  _188
REMARK   87  A    between atoms: _188  and  _189
REMARK   88  A    between atoms: _189  and  _190
REMARK   89  A    between atoms: _193  and  _195
REMARK   90  A    between atoms: _195  and  _196
REMARK   91  A    between atoms: _195  and  _198
REMARK   92  A    between atoms: _198  and  _199
REMARK   93  A    between atoms: _199  and  _200
REMARK   94  A    between atoms: _200  and  _202
REMARK   95  A    between atoms: _202  and  ZN_395
REMARK   96  A    between atoms: _203  and  _205
REMARK   97  A    between atoms: _205  and  _206
REMARK   98  A    between atoms: _205  and  _208
REMARK   99  A    between atoms: _208  and  _209
REMARK  100  A    between atoms: _212  and  _214
REMARK  101  A    between atoms: _214  and  _215
REMARK  102  A    between atoms: _214  and  _217
REMARK  103  A    between atoms: _220  and  _222
REMARK  104  A    between atoms: _222  and  _223
REMARK  105  A    between atoms: _225  and  _227
REMARK  106  A    between atoms: _227  and  _228
REMARK  107  A    between atoms: _227  and  _230
REMARK  108  A    between atoms: _230  and  _231
REMARK  109  A    between atoms: _231  and  _233
REMARK  110  A    between atoms: _233  and  ZN_395
REMARK  111  A    between atoms: _234  and  _236
REMARK  112  A    between atoms: _236  and  _237
REMARK  113  A    between atoms: _236  and  _239
REMARK  114  A    between atoms: _239  and  _240
REMARK  115  A    between atoms: _243  and  _245
REMARK  116  A    between atoms: _245  and  _246
REMARK  117  A    between atoms: _245  and  _248
REMARK  118  A    between atoms: _248  and  _249
REMARK  119  A    between atoms: _252  and  _254
REMARK  120  A    between atoms: _254  and  _255
REMARK  121  A    between atoms: _254  and  _257
REMARK  122  A    between atoms: _257  and  _258
REMARK  123  A    between atoms: _261  and  _263
REMARK  124  A    between atoms: _263  and  _264
REMARK  125  A    between atoms: _263  and  _266
REMARK  126  A    between atoms: _266  and  _267
REMARK  127  A    between atoms: _267  and  _268
REMARK  128  A    between atoms: _268  and  _269
REMARK  129  A    between atoms: _269  and  _270
REMARK  130  A    between atoms: _274  and  _276
REMARK  131  A    between atoms: _276  and  _277
REMARK  132  A    between atoms: _276  and  _279
REMARK  133  A    between atoms: _279  and  _280
REMARK  134  A    between atoms: _285  and  _287
REMARK  135  A    between atoms: _287  and  _288
REMARK  136  A    between atoms: _287  and  _290
REMARK  137  A    between atoms: _290  and  _291
REMARK  138  A    between atoms: _291  and  _292
REMARK  139  A    between atoms: _297  and  _299
REMARK  140  A    between atoms: _299  and  _300
REMARK  141  A    between atoms: _299  and  _302
REMARK  142  A    between atoms: _302  and  _303
REMARK  143  A    between atoms: _303  and  _304
REMARK  144  A    between atoms: _306  and  _308
REMARK  145  A    between atoms: _308  and  _309
REMARK  146  A    between atoms: _308  and  _311
REMARK  147  A    between atoms: _311  and  _312
REMARK  148  A    between atoms: _314  and  _316
REMARK  149  A    between atoms: _316  and  _317
REMARK  150  A    between atoms: _316  and  _319
REMARK  151  A    between atoms: _319  and  _320
REMARK  152  A    between atoms: _325  and  _327
REMARK  153  A    between atoms: _327  and  _328
REMARK  154  A    between atoms: _327  and  _330
REMARK  155  A    between atoms: _330  and  _331
REMARK  156  A    between atoms: _331  and  _332
REMARK  157  A    between atoms: _332  and  _333
REMARK  158  A    between atoms: _342  and  _344
REMARK  159  A    between atoms: _344  and  _345
REMARK  160  A    between atoms: _344  and  _347
REMARK  161  A    between atoms: _347  and  _348
REMARK  162  A    between atoms: _350  and  _352
REMARK  163  A    between atoms: _352  and  _353
REMARK  164  A    between atoms: _355  and  _357
REMARK  165  A    between atoms: _357  and  _358
REMARK  166  A    between atoms: _357  and  _360
REMARK  167  A    between atoms: _360  and  _361
REMARK  168  A    between atoms: _361  and  _362
REMARK  169  A    between atoms: _365  and  _367
REMARK  170  A    between atoms: _367  and  _368
REMARK  171  A    between atoms: _367  and  _370
REMARK  172  A    between atoms: _370  and  _371
REMARK  173  A    between atoms: _371  and  _372
REMARK  174  A    between atoms: _372  and  _373
REMARK  175  A    between atoms: _373  and  _374
REMARK  176  A    between atoms: _378  and  _380
REMARK  177  A    between atoms: _380  and  _381
REMARK  178  A    between atoms: _380  and  _383
REMARK  179  A    between atoms: _383  and  _384
REMARK  180  A    between atoms: _384  and  _385
REMARK  181  A    between atoms: _385  and  _386
REMARK                            x       y       z     vdW  Elec       q    Type
REMARK                         _______ _______ _______ _____ _____    ______ ____
ROOT
ATOM      1  O   HOH     1       7.261  24.970  35.167  0.00  0.00    +0.000 OA
ENDROOT
TORSDOF 0
REMARK  Name = ../refined-set-2016/2ptz/2ptz_pocket.pdb
REMARK  181 active torsions:
REMARK  status: ('A' for Active; 'I' for Inactive)
REMARK    1  A    between atoms: _1  and  _3
REMARK    2  A    between atoms: _3  and  _4
REMARK    3  A    between atoms: _3  and  _6
REMARK    4  A    between atoms: _6  and  _7
REMARK    5  A    between atoms: _7  and  _8
REMARK    6  A    between atoms: _8  and  _9
REMARK    7  A    between atoms: _19  and  _20
REMARK    8  A    between atoms: _25  and  _27
REMARK    9  A    between atoms: _27  and  _28
REMARK   10  A    between atoms: _27  and  _30
REMARK   11  A    between atoms: _30  and  _31
REMARK   12  A    between atoms: _33  and  _35
REMARK   13  A    between atoms: _35  and  _36
REMARK   14  A    between atoms: _38  and  _40
REMARK   15  A    between atoms: _40  and  _41
REMARK   16  A    between atoms: _44  and  _46
REMARK   17  A    between atoms: _46  and  _47
REMARK   18  A    between atoms: _46  and  _49
REMARK   19  A    between atoms: _47  and  _48
REMARK   20  A    between atoms: _47  and  _52
REMARK   21  A    between atoms: _48  and  ZN_396
REMARK   22  A    between atoms: _49  and  _50
REMARK   23  A    between atoms: _52  and  _54
REMARK   24  A    between atoms: _54  and  _55
REMARK   25  A    between atoms: _54  and  _57
REMARK   26  A    between atoms: _57  and  _58
REMARK   27  A    between atoms: _61  and  _63
REMARK   28  A    between atoms: _63  and  _64
REMARK   29  A    between atoms: _66  and  _68
REMARK   30  A    between atoms: _68  and  _69
REMARK   31  A    between atoms: _68  and  _71
REMARK   32  A    between atoms: _71  and  _72
REMARK   33  A    between atoms: _72  and  _73
REMARK   34  A    between atoms: _76  and  _78
REMARK   35  A    between atoms: _78  and  _79
REMARK   36  A    between atoms: _78  and  _81
REMARK   37  A    between atoms: _81  and  _82
REMARK   38  A    between atoms: _87  and  _89
REMARK   39  A    between atoms: _89  and  _90
REMARK   40  A    between atoms: _92  and  _94
REMARK   41  A    between atoms: _94  and  _95
REMARK   42  A    between atoms: _94  and  _97
REMARK   43  A    between atoms: _97  and  _98
REMARK   44  A    between atoms: _98  and  _99
REMARK   45  A    between atoms: _99  and  _100
REMARK   46  A    between atoms: _100  and  _101
REMARK   47  A    between atoms: _105  and  _107
REMARK   48  A    between atoms: _107  and  _108
REMARK   49  A    between atoms: _107  and  _110
REMARK   50  A    between atoms: _110  and  _111
REMARK   51  A    between atoms: _111  and  _112
REMARK   52  A    between atoms: _117  and  _119
REMARK   53  A    between atoms: _119  and  _120
REMARK   54  A    between atoms: _119  and  _122
REMARK   55  A    between atoms: _122  and  _123
REMARK   56  A    between atoms: _123  and  _124
REMARK   57  A    between atoms: _127  and  _129
REMARK   58  A    between atoms: _129  and  _130
REMARK   59  A    between atoms: _129  and  _132
REMARK   60  A    between atoms: _132  and  _133
REMARK   61  A    between atoms: _133  and  _134
REMARK   62  A    between atoms: _136  and  _138
REMARK   63  A    between atoms: _138  and  _139
REMARK   64  A    between atoms: _138  and  _141
REMARK   65  A    between atoms: _141  and  _142
REMARK   66  A    between atoms: _145  and  _147
REMARK   67  A    between atoms: _147  and  _148
REMARK   68  A    between atoms: _147  and  _150
REMARK   69  A    between atoms: _150  and  _151
REMARK   70  A    between atoms: _151  and  _152
REMARK   71  A    between atoms: _155  and  _157
REMARK   72  A    between atoms: _157  and  _158
REMARK   73  A    between atoms: _157  and  _160
REMARK   74  A    between atoms: _160  and  _161
REMARK   75  A    between atoms: _161  and  _163
REMARK   76  A    between atoms: _163  and  ZN_395
REMARK   77  A    between atoms: _164  and  _166
REMARK   78  A    between atoms: _166  and  _167
REMARK   79  A    between atoms: _166  and  _169
REMARK   80  A    between atoms: _171  and  _173
REMARK   81  A    between atoms: _173  and  _174
REMARK   82  A    between atoms: _177  and  _179
REMARK   83  A    between atoms: _179  and  _180
REMARK   84  A    between atoms: _183  and  _185
REMARK   85  A    between atoms: _185  and  _186
REMARK   86  A    between atoms: _185  and  _188
REMARK   87  A    between atoms: _188  and  _189
REMARK   88  A    between atoms: _189  and  _190
REMARK   89  A    between atoms: _193  and  _195
REMARK   90  A    between atoms: _195  and  _196
REMARK   91  A    between atoms: _195  and  _198
REMARK   92  A    between atoms: _198  and  _199
REMARK   93  A    between atoms: _199  and  _200
REMARK   94  A    between atoms: _200  and  _202
REMARK   95  A    between atoms: _202  and  ZN_395
REMARK   96  A    between atoms: _203  and  _205
REMARK   97  A    between atoms: _205  and  _206
REMARK   98  A    between atoms: _205  and  _208
REMARK   99  A    between atoms: _208  and  _209
REMARK  100  A    between atoms: _212  and  _214
REMARK  101  A    between atoms: _214  and  _215
REMARK  102  A    between atoms: _214  and  _217
REMARK  103  A    between atoms: _220  and  _222
REMARK  104  A    between atoms: _222  and  _223
REMARK  105  A    between atoms: _225  and  _227
REMARK  106  A    between atoms: _227  and  _228
REMARK  107  A    between atoms: _227  and  _230
REMARK  108  A    between atoms: _230  and  _231
REMARK  109  A    between atoms: _231  and  _233
REMARK  110  A    between atoms: _233  and  ZN_395
REMARK  111  A    between atoms: _234  and  _236
REMARK  112  A    between atoms: _236  and  _237
REMARK  113  A    between atoms: _236  and  _239
REMARK  114  A    between atoms: _239  and  _240
REMARK  115  A    between atoms: _243  and  _245
REMARK  116  A    between atoms: _245  and  _246
REMARK  117  A    between atoms: _245  and  _248
REMARK  118  A    between atoms: _248  and  _249
REMARK  119  A    between atoms: _252  and  _254
REMARK  120  A    between atoms: _254  and  _255
REMARK  121  A    between atoms: _254  and  _257
REMARK  122  A    between atoms: _257  and  _258
REMARK  123  A    between atoms: _261  and  _263
REMARK  124  A    between atoms: _263  and  _264
REMARK  125  A    between atoms: _263  and  _266
REMARK  126  A    between atoms: _266  and  _267
REMARK  127  A    between atoms: _267  and  _268
REMARK  128  A    between atoms: _268  and  _269
REMARK  129  A    between atoms: _269  and  _270
REMARK  130  A    between atoms: _274  and  _276
REMARK  131  A    between atoms: _276  and  _277
REMARK  132  A    between atoms: _276  and  _279
REMARK  133  A    between atoms: _279  and  _280
REMARK  134  A    between atoms: _285  and  _287
REMARK  135  A    between atoms: _287  and  _288
REMARK  136  A    between atoms: _287  and  _290
REMARK  137  A    between atoms: _290  and  _291
REMARK  138  A    between atoms: _291  and  _292
REMARK  139  A    between atoms: _297  and  _299
REMARK  140  A    between atoms: _299  and  _300
REMARK  141  A    between atoms: _299  and  _302
REMARK  142  A    between atoms: _302  and  _303
REMARK  143  A    between atoms: _303  and  _304
REMARK  144  A    between atoms: _306  and  _308
REMARK  145  A    between atoms: _308  and  _309
REMARK  146  A    between atoms: _308  and  _311
REMARK  147  A    between atoms: _311  and  _312
REMARK  148  A    between atoms: _314  and  _316
REMARK  149  A    between atoms: _316  and  _317
REMARK  150  A    between atoms: _316  and  _319
REMARK  151  A    between atoms: _319  and  _320
REMARK  152  A    between atoms: _325  and  _327
REMARK  153  A    between atoms: _327  and  _328
REMARK  154  A    between atoms: _327  and  _330
REMARK  155  A    between atoms: _330  and  _331
REMARK  156  A    between atoms: _331  and  _332
REMARK  157  A    between atoms: _332  and  _333
REMARK  158  A    between atoms: _342  and  _344
REMARK  159  A    between atoms: _344  and  _345
REMARK  160  A    between atoms: _344  and  _347
REMARK  161  A    between atoms: _347  and  _348
REMARK  162  A    between atoms: _350  and  _352
REMARK  163  A    between atoms: _352  and  _353
REMARK  164  A    between atoms: _355  and  _357
REMARK  165  A    between atoms: _357  and  _358
REMARK  166  A    between atoms: _357  and  _360
REMARK  167  A    between atoms: _360  and  _361
REMARK  168  A    between atoms: _361  and  _362
REMARK  169  A    between atoms: _365  and  _367
REMARK  170  A    between atoms: _367  and  _368
REMARK  171  A    between atoms: _367  and  _370
REMARK  172  A    between atoms: _370  and  _371
REMARK  173  A    between atoms: _371  and  _372
REMARK  174  A    between atoms: _372  and  _373
REMARK  175  A    between atoms: _373  and  _374
REMARK  176  A    between atoms: _378  and  _380
REMARK  177  A    between atoms: _380  and  _381
REMARK  178  A    between atoms: _380  and  _383
REMARK  179  A    between atoms: _383  and  _384
REMARK  180  A    between atoms: _384  and  _385
REMARK  181  A    between atoms: _385  and  _386
REMARK                            x       y       z     vdW  Elec       q    Type
REMARK                         _______ _______ _______ _____ _____    ______ ____
ROOT
ATOM      1  O   HOH     1       8.069  22.352  35.345  0.00  0.00    +0.000 OA
ENDROOT
TORSDOF 0
