REMARK  Name = ../refined-set-2016/1ghy/1ghy_pocket.pdb
REMARK  161 active torsions:
REMARK  status: ('A' for Active; 'I' for Inactive)
REMARK    1  A    between atoms: _1  and  _5
REMARK    2  A    between atoms: _5  and  _6
REMARK    3  A    between atoms: _5  and  _8
REMARK    4  A    between atoms: _8  and  _9
REMARK    5  A    between atoms: _12  and  _14
REMARK    6  A    between atoms: _14  and  _15
REMARK    7  A    between atoms: _14  and  _17
REMARK    8  A    between atoms: _20  and  _22
REMARK    9  A    between atoms: _22  and  _23
REMARK   10  A    between atoms: _22  and  _25
REMARK   11  A    between atoms: _25  and  _26
REMARK   12  A    between atoms: _29  and  _31
REMARK   13  A    between atoms: _31  and  _32
REMARK   14  A    between atoms: _31  and  _34
REMARK   15  A    between atoms: _34  and  _35
REMARK   16  A    between atoms: _35  and  _53
REMARK   17  A    between atoms: _36  and  _38
REMARK   18  A    between atoms: _38  and  _39
REMARK   19  A    between atoms: _38  and  _41
REMARK   20  A    between atoms: _41  and  _42
REMARK   21  A    between atoms: _47  and  _49
REMARK   22  A    between atoms: _49  and  _50
REMARK   23  A    between atoms: _49  and  _52
REMARK   24  A    between atoms: _52  and  _53
REMARK   25  A    between atoms: _54  and  _56
REMARK   26  A    between atoms: _56  and  _57
REMARK   27  A    between atoms: _56  and  _59
REMARK   28  A    between atoms: _59  and  _60
REMARK   29  A    between atoms: _65  and  _66
REMARK   30  A    between atoms: _69  and  _70
REMARK   31  A    between atoms: _75  and  _77
REMARK   32  A    between atoms: _77  and  _78
REMARK   33  A    between atoms: _77  and  _80
REMARK   34  A    between atoms: _80  and  _81
REMARK   35  A    between atoms: _91  and  _93
REMARK   36  A    between atoms: _93  and  _94
REMARK   37  A    between atoms: _93  and  _96
REMARK   38  A    between atoms: _96  and  _97
REMARK   39  A    between atoms: _97  and  _98
REMARK   40  A    between atoms: _98  and  _99
REMARK   41  A    between atoms: _99  and  _100
REMARK   42  A    between atoms: _104  and  _106
REMARK   43  A    between atoms: _106  and  _107
REMARK   44  A    between atoms: _106  and  _109
REMARK   45  A    between atoms: _109  and  _110
REMARK   46  A    between atoms: _115  and  _116
REMARK   47  A    between atoms: _118  and  _120
REMARK   48  A    between atoms: _120  and  _121
REMARK   49  A    between atoms: _120  and  _123
REMARK   50  A    between atoms: _123  and  _124
REMARK   51  A    between atoms: _127  and  _129
REMARK   52  A    between atoms: _129  and  _130
REMARK   53  A    between atoms: _129  and  _132
REMARK   54  A    between atoms: _132  and  _133
REMARK   55  A    between atoms: _136  and  _138
REMARK   56  A    between atoms: _138  and  _139
REMARK   57  A    between atoms: _138  and  _141
REMARK   58  A    between atoms: _144  and  _146
REMARK   59  A    between atoms: _146  and  _147
REMARK   60  A    between atoms: _146  and  _149
REMARK   61  A    between atoms: _149  and  _150
REMARK   62  A    between atoms: _155  and  _157
REMARK   63  A    between atoms: _157  and  _158
REMARK   64  A    between atoms: _157  and  _160
REMARK   65  A    between atoms: _160  and  _161
REMARK   66  A    between atoms: _161  and  _162
REMARK   67  A    between atoms: _165  and  _167
REMARK   68  A    between atoms: _167  and  _168
REMARK   69  A    between atoms: _167  and  _170
REMARK   70  A    between atoms: _170  and  _171
REMARK   71  A    between atoms: _174  and  _176
REMARK   72  A    between atoms: _176  and  _177
REMARK   73  A    between atoms: _180  and  _182
REMARK   74  A    between atoms: _182  and  _183
REMARK   75  A    between atoms: _185  and  _187
REMARK   76  A    between atoms: _187  and  _188
REMARK   77  A    between atoms: _187  and  _190
REMARK   78  A    between atoms: _190  and  _191
REMARK   79  A    between atoms: _194  and  _196
REMARK   80  A    between atoms: _196  and  _197
REMARK   81  A    between atoms: _200  and  _202
REMARK   82  A    between atoms: _202  and  _203
REMARK   83  A    between atoms: _202  and  _205
REMARK   84  A    between atoms: _205  and  _206
REMARK   85  A    between atoms: _206  and  _307
REMARK   86  A    between atoms: _207  and  _209
REMARK   87  A    between atoms: _209  and  _210
REMARK   88  A    between atoms: _209  and  _212
REMARK   89  A    between atoms: _212  and  _213
REMARK   90  A    between atoms: _213  and  _214
REMARK   91  A    between atoms: _217  and  _219
REMARK   92  A    between atoms: _219  and  _220
REMARK   93  A    between atoms: _222  and  _224
REMARK   94  A    between atoms: _224  and  _225
REMARK   95  A    between atoms: _224  and  _227
REMARK   96  A    between atoms: _227  and  _228
REMARK   97  A    between atoms: _231  and  _233
REMARK   98  A    between atoms: _233  and  _234
REMARK   99  A    between atoms: _233  and  _236
REMARK  100  A    between atoms: _236  and  _237
REMARK  101  A    between atoms: _239  and  _241
REMARK  102  A    between atoms: _241  and  _242
REMARK  103  A    between atoms: _244  and  _246
REMARK  104  A    between atoms: _246  and  _247
REMARK  105  A    between atoms: _249  and  _251
REMARK  106  A    between atoms: _251  and  _252
REMARK  107  A    between atoms: _251  and  _254
REMARK  108  A    between atoms: _257  and  _259
REMARK  109  A    between atoms: _259  and  _260
REMARK  110  A    between atoms: _259  and  _262
REMARK  111  A    between atoms: _262  and  _263
REMARK  112  A    between atoms: _265  and  _267
REMARK  113  A    between atoms: _267  and  _268
REMARK  114  A    between atoms: _267  and  _270
REMARK  115  A    between atoms: _270  and  _271
REMARK  116  A    between atoms: _281  and  _283
REMARK  117  A    between atoms: _283  and  _284
REMARK  118  A    between atoms: _286  and  _288
REMARK  119  A    between atoms: _288  and  _289
REMARK  120  A    between atoms: _288  and  _291
REMARK  121  A    between atoms: _291  and  _292
REMARK  122  A    between atoms: _292  and  _293
REMARK  123  A    between atoms: _296  and  _298
REMARK  124  A    between atoms: _298  and  _299
REMARK  125  A    between atoms: _301  and  _303
REMARK  126  A    between atoms: _303  and  _304
REMARK  127  A    between atoms: _303  and  _306
REMARK  128  A    between atoms: _306  and  _307
REMARK  129  A    between atoms: _308  and  _310
REMARK  130  A    between atoms: _310  and  _311
REMARK  131  A    between atoms: _310  and  _313
REMARK  132  A    between atoms: _313  and  _314
REMARK  133  A    between atoms: _317  and  _319
REMARK  134  A    between atoms: _319  and  _320
REMARK  135  A    between atoms: _319  and  _322
REMARK  136  A    between atoms: _322  and  _323
REMARK  137  A    between atoms: _323  and  _324
REMARK  138  A    between atoms: _324  and  _325
REMARK  139  A    between atoms: _334  and  _336
REMARK  140  A    between atoms: _336  and  _337
REMARK  141  A    between atoms: _336  and  _339
REMARK  142  A    between atoms: _339  and  _340
REMARK  143  A    between atoms: _340  and  _341
REMARK  144  A    between atoms: _341  and  _342
REMARK  145  A    between atoms: _342  and  _343
REMARK  146  A    between atoms: _347  and  _349
REMARK  147  A    between atoms: _349  and  _350
REMARK  148  A    between atoms: _349  and  _352
REMARK  149  A    between atoms: _352  and  _353
REMARK  150  A    between atoms: _358  and  _359
REMARK  151  A    between atoms: _361  and  _363
REMARK  152  A    between atoms: _363  and  _364
REMARK  153  A    between atoms: _366  and  _368
REMARK  154  A    between atoms: _368  and  _369
REMARK  155  A    between atoms: _368  and  _371
REMARK  156  A    between atoms: _371  and  _372
REMARK  157  A    between atoms: _378  and  _380
REMARK  158  A    between atoms: _380  and  _381
REMARK  159  A    between atoms: _380  and  _383
REMARK  160  A    between atoms: _383  and  _384
REMARK  161  A    between atoms: _389  and  _390
REMARK                            x       y       z     vdW  Elec       q    Type
REMARK                         _______ _______ _______ _____ _____    ______ ____
ROOT
ATOM      1  C   ILE A   1       3.524 -10.164  19.807  0.00  0.00    +0.202 C 
ATOM      2  N   VAL A   2       3.446 -10.671  21.005  0.00  0.00    -0.301 N 
ATOM      3  H   VAL A   2       4.103 -10.322  21.732  0.00  0.00    +0.150 HD
ATOM      4  O   ILE A   1       2.810 -10.453  18.863  0.00  0.00    -0.277 OA
ENDROOT
BRANCH   1   5
ATOM      5  CA  ILE A   1       4.592  -9.117  19.619  0.00  0.00    +0.013 C 
BRANCH   5   6
ATOM      6  N   ILE A   1       5.131  -9.535  18.314  0.00  0.00    +0.387 N 
ATOM      7  H1  ILE A   1       5.498 -10.506  18.386  0.00  0.00    -0.089 HD
ATOM      8  H2  ILE A   1       5.900  -8.892  18.036  0.00  0.00    -0.089 HD
ATOM      9  H3  ILE A   1       4.375  -9.501  17.601  0.00  0.00    -0.089 HD
ENDBRANCH   5   6
BRANCH   5  10
ATOM     10  CB  ILE A   1       3.948  -7.683  19.542  0.00  0.00    -0.011 C 
ATOM     11  CG2 ILE A   1       3.080  -7.361  20.731  0.00  0.00    -0.002 C 
BRANCH  10  12
ATOM     12  CG1 ILE A   1       4.915  -6.450  19.212  0.00  0.00    -0.002 C 
ATOM     13  CD1 ILE A   1       5.922  -6.150  20.321  0.00  0.00    -0.000 C 
ENDBRANCH  10  12
ENDBRANCH   5  10
ENDBRANCH   1   5
BRANCH   2  14
ATOM     14  CA  VAL A   2       2.469 -11.720  21.385  0.00  0.00    +0.137 C 
BRANCH  14  15
ATOM     15  CB  VAL A   2       3.219 -12.842  22.144  0.00  0.00    +0.026 C 
ATOM     16  CG2 VAL A   2       2.236 -13.977  22.446  0.00  0.00    +0.002 C 
ATOM     17  CG1 VAL A   2       4.439 -13.349  21.329  0.00  0.00    +0.002 C 
ENDBRANCH  14  15
BRANCH  14  18
ATOM     18  C   VAL A   2       1.443 -11.070  22.287  0.00  0.00    +0.227 C 
ATOM     19  O   VAL A   2       1.821 -10.346  23.186  0.00  0.00    -0.286 OA
ENDBRANCH  14  18
ENDBRANCH   2  14
TORSDOF 7
REMARK  Name = ../refined-set-2016/1ghy/1ghy_pocket.pdb
REMARK  161 active torsions:
REMARK  status: ('A' for Active; 'I' for Inactive)
REMARK    1  A    between atoms: _1  and  _5
REMARK    2  A    between atoms: _5  and  _6
REMARK    3  A    between atoms: _5  and  _8
REMARK    4  A    between atoms: _8  and  _9
REMARK    5  A    between atoms: _12  and  _14
REMARK    6  A    between atoms: _14  and  _15
REMARK    7  A    between atoms: _14  and  _17
REMARK    8  A    between atoms: _20  and  _22
REMARK    9  A    between atoms: _22  and  _23
REMARK   10  A    between atoms: _22  and  _25
REMARK   11  A    between atoms: _25  and  _26
REMARK   12  A    between atoms: _29  and  _31
REMARK   13  A    between atoms: _31  and  _32
REMARK   14  A    between atoms: _31  and  _34
REMARK   15  A    between atoms: _34  and  _35
REMARK   16  A    between atoms: _35  and  _53
REMARK   17  A    between atoms: _36  and  _38
REMARK   18  A    between atoms: _38  and  _39
REMARK   19  A    between atoms: _38  and  _41
REMARK   20  A    between atoms: _41  and  _42
REMARK   21  A    between atoms: _47  and  _49
REMARK   22  A    between atoms: _49  and  _50
REMARK   23  A    between atoms: _49  and  _52
REMARK   24  A    between atoms: _52  and  _53
REMARK   25  A    between atoms: _54  and  _56
REMARK   26  A    between atoms: _56  and  _57
REMARK   27  A    between atoms: _56  and  _59
REMARK   28  A    between atoms: _59  and  _60
REMARK   29  A    between atoms: _65  and  _66
REMARK   30  A    between atoms: _69  and  _70
REMARK   31  A    between atoms: _75  and  _77
REMARK   32  A    between atoms: _77  and  _78
REMARK   33  A    between atoms: _77  and  _80
REMARK   34  A    between atoms: _80  and  _81
REMARK   35  A    between atoms: _91  and  _93
REMARK   36  A    between atoms: _93  and  _94
REMARK   37  A    between atoms: _93  and  _96
REMARK   38  A    between atoms: _96  and  _97
REMARK   39  A    between atoms: _97  and  _98
REMARK   40  A    between atoms: _98  and  _99
REMARK   41  A    between atoms: _99  and  _100
REMARK   42  A    between atoms: _104  and  _106
REMARK   43  A    between atoms: _106  and  _107
REMARK   44  A    between atoms: _106  and  _109
REMARK   45  A    between atoms: _109  and  _110
REMARK   46  A    between atoms: _115  and  _116
REMARK   47  A    between atoms: _118  and  _120
REMARK   48  A    between atoms: _120  and  _121
REMARK   49  A    between atoms: _120  and  _123
REMARK   50  A    between atoms: _123  and  _124
REMARK   51  A    between atoms: _127  and  _129
REMARK   52  A    between atoms: _129  and  _130
REMARK   53  A    between atoms: _129  and  _132
REMARK   54  A    between atoms: _132  and  _133
REMARK   55  A    between atoms: _136  and  _138
REMARK   56  A    between atoms: _138  and  _139
REMARK   57  A    between atoms: _138  and  _141
REMARK   58  A    between atoms: _144  and  _146
REMARK   59  A    between atoms: _146  and  _147
REMARK   60  A    between atoms: _146  and  _149
REMARK   61  A    between atoms: _149  and  _150
REMARK   62  A    between atoms: _155  and  _157
REMARK   63  A    between atoms: _157  and  _158
REMARK   64  A    between atoms: _157  and  _160
REMARK   65  A    between atoms: _160  and  _161
REMARK   66  A    between atoms: _161  and  _162
REMARK   67  A    between atoms: _165  and  _167
REMARK   68  A    between atoms: _167  and  _168
REMARK   69  A    between atoms: _167  and  _170
REMARK   70  A    between atoms: _170  and  _171
REMARK   71  A    between atoms: _174  and  _176
REMARK   72  A    between atoms: _176  and  _177
REMARK   73  A    between atoms: _180  and  _182
REMARK   74  A    between atoms: _182  and  _183
REMARK   75  A    between atoms: _185  and  _187
REMARK   76  A    between atoms: _187  and  _188
REMARK   77  A    between atoms: _187  and  _190
REMARK   78  A    between atoms: _190  and  _191
REMARK   79  A    between atoms: _194  and  _196
REMARK   80  A    between atoms: _196  and  _197
REMARK   81  A    between atoms: _200  and  _202
REMARK   82  A    between atoms: _202  and  _203
REMARK   83  A    between atoms: _202  and  _205
REMARK   84  A    between atoms: _205  and  _206
REMARK   85  A    between atoms: _206  and  _307
REMARK   86  A    between atoms: _207  and  _209
REMARK   87  A    between atoms: _209  and  _210
REMARK   88  A    between atoms: _209  and  _212
REMARK   89  A    between atoms: _212  and  _213
REMARK   90  A    between atoms: _213  and  _214
REMARK   91  A    between atoms: _217  and  _219
REMARK   92  A    between atoms: _219  and  _220
REMARK   93  A    between atoms: _222  and  _224
REMARK   94  A    between atoms: _224  and  _225
REMARK   95  A    between atoms: _224  and  _227
REMARK   96  A    between atoms: _227  and  _228
REMARK   97  A    between atoms: _231  and  _233
REMARK   98  A    between atoms: _233  and  _234
REMARK   99  A    between atoms: _233  and  _236
REMARK  100  A    between atoms: _236  and  _237
REMARK  101  A    between atoms: _239  and  _241
REMARK  102  A    between atoms: _241  and  _242
REMARK  103  A    between atoms: _244  and  _246
REMARK  104  A    between atoms: _246  and  _247
REMARK  105  A    between atoms: _249  and  _251
REMARK  106  A    between atoms: _251  and  _252
REMARK  107  A    between atoms: _251  and  _254
REMARK  108  A    between atoms: _257  and  _259
REMARK  109  A    between atoms: _259  and  _260
REMARK  110  A    between atoms: _259  and  _262
REMARK  111  A    between atoms: _262  and  _263
REMARK  112  A    between atoms: _265  and  _267
REMARK  113  A    between atoms: _267  and  _268
REMARK  114  A    between atoms: _267  and  _270
REMARK  115  A    between atoms: _270  and  _271
REMARK  116  A    between atoms: _281  and  _283
REMARK  117  A    between atoms: _283  and  _284
REMARK  118  A    between atoms: _286  and  _288
REMARK  119  A    between atoms: _288  and  _289
REMARK  120  A    between atoms: _288  and  _291
REMARK  121  A    between atoms: _291  and  _292
REMARK  122  A    between atoms: _292  and  _293
REMARK  123  A    between atoms: _296  and  _298
REMARK  124  A    between atoms: _298  and  _299
REMARK  125  A    between atoms: _301  and  _303
REMARK  126  A    between atoms: _303  and  _304
REMARK  127  A    between atoms: _303  and  _306
REMARK  128  A    between atoms: _306  and  _307
REMARK  129  A    between atoms: _308  and  _310
REMARK  130  A    between atoms: _310  and  _311
REMARK  131  A    between atoms: _310  and  _313
REMARK  132  A    between atoms: _313  and  _314
REMARK  133  A    between atoms: _317  and  _319
REMARK  134  A    between atoms: _319  and  _320
REMARK  135  A    between atoms: _319  and  _322
REMARK  136  A    between atoms: _322  and  _323
REMARK  137  A    between atoms: _323  and  _324
REMARK  138  A    between atoms: _324  and  _325
REMARK  139  A    between atoms: _334  and  _336
REMARK  140  A    between atoms: _336  and  _337
REMARK  141  A    between atoms: _336  and  _339
REMARK  142  A    between atoms: _339  and  _340
REMARK  143  A    between atoms: _340  and  _341
REMARK  144  A    between atoms: _341  and  _342
REMARK  145  A    between atoms: _342  and  _343
REMARK  146  A    between atoms: _347  and  _349
REMARK  147  A    between atoms: _349  and  _350
REMARK  148  A    between atoms: _349  and  _352
REMARK  149  A    between atoms: _352  and  _353
REMARK  150  A    between atoms: _358  and  _359
REMARK  151  A    between atoms: _361  and  _363
REMARK  152  A    between atoms: _363  and  _364
REMARK  153  A    between atoms: _366  and  _368
REMARK  154  A    between atoms: _368  and  _369
REMARK  155  A    between atoms: _368  and  _371
REMARK  156  A    between atoms: _371  and  _372
REMARK  157  A    between atoms: _378  and  _380
REMARK  158  A    between atoms: _380  and  _381
REMARK  159  A    between atoms: _380  and  _383
REMARK  160  A    between atoms: _383  and  _384
REMARK  161  A    between atoms: _389  and  _390
REMARK                            x       y       z     vdW  Elec       q    Type
REMARK                         _______ _______ _______ _____ _____    ______ ____
ROOT
ATOM      1  CB  CYS A   2      19.254  -6.345  14.839  0.00  0.00    +0.000 C 
ENDROOT
BRANCH   1   2
ATOM      2  SG  CYS A   2      17.864  -6.310  15.945  0.00  0.00    +0.000 S 
BRANCH   2   3
ATOM      3  SG  CYS A   2      16.559  -7.333  14.778  0.00  0.00    +0.000 S 
BRANCH   3   4
ATOM      4  CB  CYS A   2      15.739  -5.963  13.926  0.00  0.00    +0.000 C 
BRANCH   4   5
ATOM      5  CA  CYS A   2      14.397  -6.190  13.210  0.00  0.00    +0.000 C 
BRANCH   5   8
ATOM      6  C   UNK A   1      15.001  -7.926  11.598  0.00  0.00    +0.000 C 
ATOM      7  O   UNK A   1      15.132  -8.773  12.458  0.00  0.00    +0.000 OA
ATOM      8  N   CYS A   2      14.652  -6.688  11.830  0.00  0.00    +0.000 N 
ATOM      9  H   CYS A   2      14.550  -6.033  11.029  0.00  0.00    +0.000 HD
BRANCH   6  10
ATOM     10  C   UNK A   1      15.248  -8.294  10.122  0.00  0.00    +0.000 C 
BRANCH  10  11
ATOM     11  N   UNK A   1      14.085  -7.931   9.289  0.00  0.00    +0.000 NA
ATOM     12  H   UNK A   1      13.927  -6.931   9.050  0.00  0.00    +0.000 HD
ENDBRANCH  10  11
BRANCH  10  13
ATOM     13  C   UNK A   1      16.419  -7.531   9.602  0.00  0.00    +0.000 C 
BRANCH  13  14
ATOM     14  C   UNK A   1      17.646  -8.362   9.626  0.00  0.00    +0.000 C 
ATOM     15  C   UNK A   1      18.780  -7.421   9.229  0.00  0.00    +0.000 C 
ATOM     16  C   UNK A   1      17.510  -9.558   8.601  0.00  0.00    +0.000 C 
ENDBRANCH  13  14
ENDBRANCH  10  13
ENDBRANCH   6  10
ENDBRANCH   5   8
BRANCH   5  17
ATOM     17  C   CYS A   2      13.636  -4.872  13.170  0.00  0.00    +0.000 C 
ATOM     18  O   CYS A   2      13.267  -4.388  12.108  0.00  0.00    +0.000 OA
ENDBRANCH   5  17
ENDBRANCH   4   5
ENDBRANCH   3   4
ENDBRANCH   2   3
ENDBRANCH   1   2
BRANCH   1  19
ATOM     19  CA  CYS A   2      20.036  -7.590  14.953  0.00  0.00    +0.000 C 
BRANCH  19  20
ATOM     20  N   CYS A   2      20.860  -7.579  16.181  0.00  0.00    +0.000 N 
ATOM     21  H   CYS A   2      20.992  -6.691  16.705  0.00  0.00    +0.000 HD
ATOM     22  C   UNK A   1      21.421  -8.671  16.611  0.00  0.00    +0.000 C 
ATOM     23  O   UNK A   1      21.298  -9.750  16.070  0.00  0.00    +0.000 OA
BRANCH  22  24
ATOM     24  C   UNK A   1      22.264  -8.516  17.864  0.00  0.00    +0.000 C 
BRANCH  24  25
ATOM     25  N   UNK A   1      22.313  -7.108  18.360  0.00  0.00    +0.000 NA
ATOM     26  H   UNK A   1      21.717  -6.787  19.149  0.00  0.00    +0.000 HD
ENDBRANCH  24  25
BRANCH  24  27
ATOM     27  C   UNK A   1      21.743  -9.484  18.979  0.00  0.00    +0.000 C 
BRANCH  27  28
ATOM     28  C   UNK A   1      20.262  -9.488  19.234  0.00  0.00    +0.000 A 
ATOM     29  N   UNK A   1      19.596  -8.718  20.023  0.00  0.00    +0.000 NA
ATOM     30  C   UNK A   1      18.343  -9.072  19.949  0.00  0.00    +0.000 A 
ATOM     31  N   UNK A   1      18.134 -10.085  19.101  0.00  0.00    +0.000 N 
ATOM     32 ZN   UNK A   1      16.429 -10.959  18.650  0.00  0.00    +0.000 Zn
ATOM     33  C   UNK A   1      19.348 -10.322  18.676  0.00  0.00    +0.000 A 
ENDBRANCH  27  28
ENDBRANCH  24  27
ENDBRANCH  22  24
ENDBRANCH  19  20
BRANCH  19  34
ATOM     34  C   CYS A   2      21.015  -7.598  13.799  0.00  0.00    +0.000 C 
ATOM     35  O   CYS A   2      20.702  -8.025  12.708  0.00  0.00    +0.000 OA
ENDBRANCH  19  34
ENDBRANCH   1  19
TORSDOF 17
REMARK  Name = ../refined-set-2016/1ghy/1ghy_pocket.pdb
REMARK  161 active torsions:
REMARK  status: ('A' for Active; 'I' for Inactive)
REMARK    1  A    between atoms: _1  and  _5
REMARK    2  A    between atoms: _5  and  _6
REMARK    3  A    between atoms: _5  and  _8
REMARK    4  A    between atoms: _8  and  _9
REMARK    5  A    between atoms: _12  and  _14
REMARK    6  A    between atoms: _14  and  _15
REMARK    7  A    between atoms: _14  and  _17
REMARK    8  A    between atoms: _20  and  _22
REMARK    9  A    between atoms: _22  and  _23
REMARK   10  A    between atoms: _22  and  _25
REMARK   11  A    between atoms: _25  and  _26
REMARK   12  A    between atoms: _29  and  _31
REMARK   13  A    between atoms: _31  and  _32
REMARK   14  A    between atoms: _31  and  _34
REMARK   15  A    between atoms: _34  and  _35
REMARK   16  A    between atoms: _35  and  _53
REMARK   17  A    between atoms: _36  and  _38
REMARK   18  A    between atoms: _38  and  _39
REMARK   19  A    between atoms: _38  and  _41
REMARK   20  A    between atoms: _41  and  _42
REMARK   21  A    between atoms: _47  and  _49
REMARK   22  A    between atoms: _49  and  _50
REMARK   23  A    between atoms: _49  and  _52
REMARK   24  A    between atoms: _52  and  _53
REMARK   25  A    between atoms: _54  and  _56
REMARK   26  A    between atoms: _56  and  _57
REMARK   27  A    between atoms: _56  and  _59
REMARK   28  A    between atoms: _59  and  _60
REMARK   29  A    between atoms: _65  and  _66
REMARK   30  A    between atoms: _69  and  _70
REMARK   31  A    between atoms: _75  and  _77
REMARK   32  A    between atoms: _77  and  _78
REMARK   33  A    between atoms: _77  and  _80
REMARK   34  A    between atoms: _80  and  _81
REMARK   35  A    between atoms: _91  and  _93
REMARK   36  A    between atoms: _93  and  _94
REMARK   37  A    between atoms: _93  and  _96
REMARK   38  A    between atoms: _96  and  _97
REMARK   39  A    between atoms: _97  and  _98
REMARK   40  A    between atoms: _98  and  _99
REMARK   41  A    between atoms: _99  and  _100
REMARK   42  A    between atoms: _104  and  _106
REMARK   43  A    between atoms: _106  and  _107
REMARK   44  A    between atoms: _106  and  _109
REMARK   45  A    between atoms: _109  and  _110
REMARK   46  A    between atoms: _115  and  _116
REMARK   47  A    between atoms: _118  and  _120
REMARK   48  A    between atoms: _120  and  _121
REMARK   49  A    between atoms: _120  and  _123
REMARK   50  A    between atoms: _123  and  _124
REMARK   51  A    between atoms: _127  and  _129
REMARK   52  A    between atoms: _129  and  _130
REMARK   53  A    between atoms: _129  and  _132
REMARK   54  A    between atoms: _132  and  _133
REMARK   55  A    between atoms: _136  and  _138
REMARK   56  A    between atoms: _138  and  _139
REMARK   57  A    between atoms: _138  and  _141
REMARK   58  A    between atoms: _144  and  _146
REMARK   59  A    between atoms: _146  and  _147
REMARK   60  A    between atoms: _146  and  _149
REMARK   61  A    between atoms: _149  and  _150
REMARK   62  A    between atoms: _155  and  _157
REMARK   63  A    between atoms: _157  and  _158
REMARK   64  A    between atoms: _157  and  _160
REMARK   65  A    between atoms: _160  and  _161
REMARK   66  A    between atoms: _161  and  _162
REMARK   67  A    between atoms: _165  and  _167
REMARK   68  A    between atoms: _167  and  _168
REMARK   69  A    between atoms: _167  and  _170
REMARK   70  A    between atoms: _170  and  _171
REMARK   71  A    between atoms: _174  and  _176
REMARK   72  A    between atoms: _176  and  _177
REMARK   73  A    between atoms: _180  and  _182
REMARK   74  A    between atoms: _182  and  _183
REMARK   75  A    between atoms: _185  and  _187
REMARK   76  A    between atoms: _187  and  _188
REMARK   77  A    between atoms: _187  and  _190
REMARK   78  A    between atoms: _190  and  _191
REMARK   79  A    between atoms: _194  and  _196
REMARK   80  A    between atoms: _196  and  _197
REMARK   81  A    between atoms: _200  and  _202
REMARK   82  A    between atoms: _202  and  _203
REMARK   83  A    between atoms: _202  and  _205
REMARK   84  A    between atoms: _205  and  _206
REMARK   85  A    between atoms: _206  and  _307
REMARK   86  A    between atoms: _207  and  _209
REMARK   87  A    between atoms: _209  and  _210
REMARK   88  A    between atoms: _209  and  _212
REMARK   89  A    between atoms: _212  and  _213
REMARK   90  A    between atoms: _213  and  _214
REMARK   91  A    between atoms: _217  and  _219
REMARK   92  A    between atoms: _219  and  _220
REMARK   93  A    between atoms: _222  and  _224
REMARK   94  A    between atoms: _224  and  _225
REMARK   95  A    between atoms: _224  and  _227
REMARK   96  A    between atoms: _227  and  _228
REMARK   97  A    between atoms: _231  and  _233
REMARK   98  A    between atoms: _233  and  _234
REMARK   99  A    between atoms: _233  and  _236
REMARK  100  A    between atoms: _236  and  _237
REMARK  101  A    between atoms: _239  and  _241
REMARK  102  A    between atoms: _241  and  _242
REMARK  103  A    between atoms: _244  and  _246
REMARK  104  A    between atoms: _246  and  _247
REMARK  105  A    between atoms: _249  and  _251
REMARK  106  A    between atoms: _251  and  _252
REMARK  107  A    between atoms: _251  and  _254
REMARK  108  A    between atoms: _257  and  _259
REMARK  109  A    between atoms: _259  and  _260
REMARK  110  A    between atoms: _259  and  _262
REMARK  111  A    between atoms: _262  and  _263
REMARK  112  A    between atoms: _265  and  _267
REMARK  113  A    between atoms: _267  and  _268
REMARK  114  A    between atoms: _267  and  _270
REMARK  115  A    between atoms: _270  and  _271
REMARK  116  A    between atoms: _281  and  _283
REMARK  117  A    between atoms: _283  and  _284
REMARK  118  A    between atoms: _286  and  _288
REMARK  119  A    between atoms: _288  and  _289
REMARK  120  A    between atoms: _288  and  _291
REMARK  121  A    between atoms: _291  and  _292
REMARK  122  A    between atoms: _292  and  _293
REMARK  123  A    between atoms: _296  and  _298
REMARK  124  A    between atoms: _298  and  _299
REMARK  125  A    between atoms: _301  and  _303
REMARK  126  A    between atoms: _303  and  _304
REMARK  127  A    between atoms: _303  and  _306
REMARK  128  A    between atoms: _306  and  _307
REMARK  129  A    between atoms: _308  and  _310
REMARK  130  A    between atoms: _310  and  _311
REMARK  131  A    between atoms: _310  and  _313
REMARK  132  A    between atoms: _313  and  _314
REMARK  133  A    between atoms: _317  and  _319
REMARK  134  A    between atoms: _319  and  _320
REMARK  135  A    between atoms: _319  and  _322
REMARK  136  A    between atoms: _322  and  _323
REMARK  137  A    between atoms: _323  and  _324
REMARK  138  A    between atoms: _324  and  _325
REMARK  139  A    between atoms: _334  and  _336
REMARK  140  A    between atoms: _336  and  _337
REMARK  141  A    between atoms: _336  and  _339
REMARK  142  A    between atoms: _339  and  _340
REMARK  143  A    between atoms: _340  and  _341
REMARK  144  A    between atoms: _341  and  _342
REMARK  145  A    between atoms: _342  and  _343
REMARK  146  A    between atoms: _347  and  _349
REMARK  147  A    between atoms: _349  and  _350
REMARK  148  A    between atoms: _349  and  _352
REMARK  149  A    between atoms: _352  and  _353
REMARK  150  A    between atoms: _358  and  _359
REMARK  151  A    between atoms: _361  and  _363
REMARK  152  A    between atoms: _363  and  _364
REMARK  153  A    between atoms: _366  and  _368
REMARK  154  A    between atoms: _368  and  _369
REMARK  155  A    between atoms: _368  and  _371
REMARK  156  A    between atoms: _371  and  _372
REMARK  157  A    between atoms: _378  and  _380
REMARK  158  A    between atoms: _380  and  _381
REMARK  159  A    between atoms: _380  and  _383
REMARK  160  A    between atoms: _383  and  _384
REMARK  161  A    between atoms: _389  and  _390
REMARK                            x       y       z     vdW  Elec       q    Type
REMARK                         _______ _______ _______ _____ _____    ______ ____
ROOT
ATOM      1  CG  TYR A   1      23.715 -13.597  17.707  0.00  0.00    -0.020 A 
ATOM      2  CD2 TYR A   1      24.220 -13.250  18.949  0.00  0.00    -0.001 A 
ATOM      3  CE2 TYR A   1      24.081 -14.107  20.019  0.00  0.00    +0.036 A 
ATOM      4  CZ  TYR A   1      23.432 -15.311  19.842  0.00  0.00    +0.134 A 
ATOM      5  CE1 TYR A   1      22.920 -15.653  18.602  0.00  0.00    +0.036 A 
ATOM      6  CD1 TYR A   1      23.064 -14.794  17.537  0.00  0.00    -0.001 A 
ENDROOT
BRANCH   4   7
ATOM      7  OH  TYR A   1      23.314 -16.195  20.891  0.00  0.00    -0.506 OA
ATOM      8  HH  TYR A   1      23.728 -15.802  21.700  0.00  0.00    +0.292 HD
ENDBRANCH   4   7
BRANCH   1   9
ATOM      9  CB  TYR A   1      23.917 -12.661  16.519  0.00  0.00    +0.051 C 
BRANCH   9  10
ATOM     10  CA  TYR A   1      25.454 -12.383  16.432  0.00  0.00    +0.137 C 
BRANCH  10  11
ATOM     11  N   TYR A   1      25.744 -11.315  15.450  0.00  0.00    -0.239 NA
ATOM     12  H   TYR A   1      25.956 -11.553  14.460  0.00  0.00    +0.142 HD
ENDBRANCH  10  11
BRANCH  10  13
ATOM     13  C   TYR A   1      26.210 -13.598  15.911  0.00  0.00    +0.224 C 
ATOM     14  O   TYR A   1      25.635 -14.461  15.281  0.00  0.00    -0.287 OA
ENDBRANCH  10  13
ENDBRANCH   9  10
ENDBRANCH   1   9
TORSDOF 5
REMARK  Name = ../refined-set-2016/1ghy/1ghy_pocket.pdb
REMARK  161 active torsions:
REMARK  status: ('A' for Active; 'I' for Inactive)
REMARK    1  A    between atoms: _1  and  _5
REMARK    2  A    between atoms: _5  and  _6
REMARK    3  A    between atoms: _5  and  _8
REMARK    4  A    between atoms: _8  and  _9
REMARK    5  A    between atoms: _12  and  _14
REMARK    6  A    between atoms: _14  and  _15
REMARK    7  A    between atoms: _14  and  _17
REMARK    8  A    between atoms: _20  and  _22
REMARK    9  A    between atoms: _22  and  _23
REMARK   10  A    between atoms: _22  and  _25
REMARK   11  A    between atoms: _25  and  _26
REMARK   12  A    between atoms: _29  and  _31
REMARK   13  A    between atoms: _31  and  _32
REMARK   14  A    between atoms: _31  and  _34
REMARK   15  A    between atoms: _34  and  _35
REMARK   16  A    between atoms: _35  and  _53
REMARK   17  A    between atoms: _36  and  _38
REMARK   18  A    between atoms: _38  and  _39
REMARK   19  A    between atoms: _38  and  _41
REMARK   20  A    between atoms: _41  and  _42
REMARK   21  A    between atoms: _47  and  _49
REMARK   22  A    between atoms: _49  and  _50
REMARK   23  A    between atoms: _49  and  _52
REMARK   24  A    between atoms: _52  and  _53
REMARK   25  A    between atoms: _54  and  _56
REMARK   26  A    between atoms: _56  and  _57
REMARK   27  A    between atoms: _56  and  _59
REMARK   28  A    between atoms: _59  and  _60
REMARK   29  A    between atoms: _65  and  _66
REMARK   30  A    between atoms: _69  and  _70
REMARK   31  A    between atoms: _75  and  _77
REMARK   32  A    between atoms: _77  and  _78
REMARK   33  A    between atoms: _77  and  _80
REMARK   34  A    between atoms: _80  and  _81
REMARK   35  A    between atoms: _91  and  _93
REMARK   36  A    between atoms: _93  and  _94
REMARK   37  A    between atoms: _93  and  _96
REMARK   38  A    between atoms: _96  and  _97
REMARK   39  A    between atoms: _97  and  _98
REMARK   40  A    between atoms: _98  and  _99
REMARK   41  A    between atoms: _99  and  _100
REMARK   42  A    between atoms: _104  and  _106
REMARK   43  A    between atoms: _106  and  _107
REMARK   44  A    between atoms: _106  and  _109
REMARK   45  A    between atoms: _109  and  _110
REMARK   46  A    between atoms: _115  and  _116
REMARK   47  A    between atoms: _118  and  _120
REMARK   48  A    between atoms: _120  and  _121
REMARK   49  A    between atoms: _120  and  _123
REMARK   50  A    between atoms: _123  and  _124
REMARK   51  A    between atoms: _127  and  _129
REMARK   52  A    between atoms: _129  and  _130
REMARK   53  A    between atoms: _129  and  _132
REMARK   54  A    between atoms: _132  and  _133
REMARK   55  A    between atoms: _136  and  _138
REMARK   56  A    between atoms: _138  and  _139
REMARK   57  A    between atoms: _138  and  _141
REMARK   58  A    between atoms: _144  and  _146
REMARK   59  A    between atoms: _146  and  _147
REMARK   60  A    between atoms: _146  and  _149
REMARK   61  A    between atoms: _149  and  _150
REMARK   62  A    between atoms: _155  and  _157
REMARK   63  A    between atoms: _157  and  _158
REMARK   64  A    between atoms: _157  and  _160
REMARK   65  A    between atoms: _160  and  _161
REMARK   66  A    between atoms: _161  and  _162
REMARK   67  A    between atoms: _165  and  _167
REMARK   68  A    between atoms: _167  and  _168
REMARK   69  A    between atoms: _167  and  _170
REMARK   70  A    between atoms: _170  and  _171
REMARK   71  A    between atoms: _174  and  _176
REMARK   72  A    between atoms: _176  and  _177
REMARK   73  A    between atoms: _180  and  _182
REMARK   74  A    between atoms: _182  and  _183
REMARK   75  A    between atoms: _185  and  _187
REMARK   76  A    between atoms: _187  and  _188
REMARK   77  A    between atoms: _187  and  _190
REMARK   78  A    between atoms: _190  and  _191
REMARK   79  A    between atoms: _194  and  _196
REMARK   80  A    between atoms: _196  and  _197
REMARK   81  A    between atoms: _200  and  _202
REMARK   82  A    between atoms: _202  and  _203
REMARK   83  A    between atoms: _202  and  _205
REMARK   84  A    between atoms: _205  and  _206
REMARK   85  A    between atoms: _206  and  _307
REMARK   86  A    between atoms: _207  and  _209
REMARK   87  A    between atoms: _209  and  _210
REMARK   88  A    between atoms: _209  and  _212
REMARK   89  A    between atoms: _212  and  _213
REMARK   90  A    between atoms: _213  and  _214
REMARK   91  A    between atoms: _217  and  _219
REMARK   92  A    between atoms: _219  and  _220
REMARK   93  A    between atoms: _222  and  _224
REMARK   94  A    between atoms: _224  and  _225
REMARK   95  A    between atoms: _224  and  _227
REMARK   96  A    between atoms: _227  and  _228
REMARK   97  A    between atoms: _231  and  _233
REMARK   98  A    between atoms: _233  and  _234
REMARK   99  A    between atoms: _233  and  _236
REMARK  100  A    between atoms: _236  and  _237
REMARK  101  A    between atoms: _239  and  _241
REMARK  102  A    between atoms: _241  and  _242
REMARK  103  A    between atoms: _244  and  _246
REMARK  104  A    between atoms: _246  and  _247
REMARK  105  A    between atoms: _249  and  _251
REMARK  106  A    between atoms: _251  and  _252
REMARK  107  A    between atoms: _251  and  _254
REMARK  108  A    between atoms: _257  and  _259
REMARK  109  A    between atoms: _259  and  _260
REMARK  110  A    between atoms: _259  and  _262
REMARK  111  A    between atoms: _262  and  _263
REMARK  112  A    between atoms: _265  and  _267
REMARK  113  A    between atoms: _267  and  _268
REMARK  114  A    between atoms: _267  and  _270
REMARK  115  A    between atoms: _270  and  _271
REMARK  116  A    between atoms: _281  and  _283
REMARK  117  A    between atoms: _283  and  _284
REMARK  118  A    between atoms: _286  and  _288
REMARK  119  A    between atoms: _288  and  _289
REMARK  120  A    between atoms: _288  and  _291
REMARK  121  A    between atoms: _291  and  _292
REMARK  122  A    between atoms: _292  and  _293
REMARK  123  A    between atoms: _296  and  _298
REMARK  124  A    between atoms: _298  and  _299
REMARK  125  A    between atoms: _301  and  _303
REMARK  126  A    between atoms: _303  and  _304
REMARK  127  A    between atoms: _303  and  _306
REMARK  128  A    between atoms: _306  and  _307
REMARK  129  A    between atoms: _308  and  _310
REMARK  130  A    between atoms: _310  and  _311
REMARK  131  A    between atoms: _310  and  _313
REMARK  132  A    between atoms: _313  and  _314
REMARK  133  A    between atoms: _317  and  _319
REMARK  134  A    between atoms: _319  and  _320
REMARK  135  A    between atoms: _319  and  _322
REMARK  136  A    between atoms: _322  and  _323
REMARK  137  A    between atoms: _323  and  _324
REMARK  138  A    between atoms: _324  and  _325
REMARK  139  A    between atoms: _334  and  _336
REMARK  140  A    between atoms: _336  and  _337
REMARK  141  A    between atoms: _336  and  _339
REMARK  142  A    between atoms: _339  and  _340
REMARK  143  A    between atoms: _340  and  _341
REMARK  144  A    between atoms: _341  and  _342
REMARK  145  A    between atoms: _342  and  _343
REMARK  146  A    between atoms: _347  and  _349
REMARK  147  A    between atoms: _349  and  _350
REMARK  148  A    between atoms: _349  and  _352
REMARK  149  A    between atoms: _352  and  _353
REMARK  150  A    between atoms: _358  and  _359
REMARK  151  A    between atoms: _361  and  _363
REMARK  152  A    between atoms: _363  and  _364
REMARK  153  A    between atoms: _366  and  _368
REMARK  154  A    between atoms: _368  and  _369
REMARK  155  A    between atoms: _368  and  _371
REMARK  156  A    between atoms: _371  and  _372
REMARK  157  A    between atoms: _378  and  _380
REMARK  158  A    between atoms: _380  and  _381
REMARK  159  A    between atoms: _380  and  _383
REMARK  160  A    between atoms: _383  and  _384
REMARK  161  A    between atoms: _389  and  _390
REMARK                            x       y       z     vdW  Elec       q    Type
REMARK                         _______ _______ _______ _____ _____    ______ ____
ROOT
ATOM      1  CA  TRP A   2      24.368 -17.767  14.064  0.00  0.00    +0.141 C 
ENDROOT
BRANCH   1   4
ATOM      2  C   PRO A   1      25.907 -18.372  15.874  0.00  0.00    +0.239 C 
ATOM      3  O   PRO A   1      25.853 -19.545  15.565  0.00  0.00    -0.274 OA
ATOM      4  N   TRP A   2      25.241 -17.433  15.245  0.00  0.00    -0.298 N 
ATOM      5  H   TRP A   2      25.317 -16.447  15.566  0.00  0.00    +0.150 HD
BRANCH   2  10
ATOM      6  N   PRO A   1      27.351 -16.579  16.912  0.00  0.00    -0.210 NA
ATOM      7  CD  PRO A   1      27.149 -15.788  18.148  0.00  0.00    +0.089 C 
ATOM      8  CG  PRO A   1      26.788 -16.876  19.178  0.00  0.00    +0.021 C 
ATOM      9  CB  PRO A   1      25.954 -17.876  18.355  0.00  0.00    +0.028 C 
ATOM     10  CA  PRO A   1      26.764 -17.938  17.064  0.00  0.00    +0.149 C 
ENDBRANCH   2  10
ENDBRANCH   1   4
BRANCH   1  11
ATOM     11  C   TRP A   2      24.931 -17.079  12.817  0.00  0.00    +0.227 C 
ATOM     12  O   TRP A   2      24.224 -16.830  11.864  0.00  0.00    -0.286 OA
ENDBRANCH   1  11
BRANCH   1  13
ATOM     13  CB  TRP A   2      22.921 -17.268  14.291  0.00  0.00    +0.056 C 
BRANCH  13  14
ATOM     14  CG  TRP A   2      22.234 -17.865  15.518  0.00  0.00    -0.002 A 
ATOM     15  CD1 TRP A   2      22.711 -18.781  16.419  0.00  0.00    +0.068 A 
ATOM     16  NE1 TRP A   2      21.784 -18.979  17.323  0.00  0.00    -0.352 N 
ATOM     17  HE1 TRP A   2      21.882 -19.627  18.130  0.00  0.00    +0.166 HD
ATOM     18  CE2 TRP A   2      20.720 -18.259  17.083  0.00  0.00    +0.056 A 
ATOM     19  CZ2 TRP A   2      19.508 -18.121  17.736  0.00  0.00    +0.017 A 
ATOM     20  CH2 TRP A   2      18.544 -17.245  17.229  0.00  0.00    +0.001 A 
ATOM     21  CZ3 TRP A   2      18.807 -16.517  16.069  0.00  0.00    +0.000 A 
ATOM     22  CE3 TRP A   2      20.025 -16.658  15.415  0.00  0.00    +0.001 A 
ATOM     23  CD2 TRP A   2      20.976 -17.527  15.923  0.00  0.00    +0.013 A 
ENDBRANCH  13  14
ENDBRANCH   1  13
TORSDOF 5
REMARK  Name = ../refined-set-2016/1ghy/1ghy_pocket.pdb
REMARK  161 active torsions:
REMARK  status: ('A' for Active; 'I' for Inactive)
REMARK    1  A    between atoms: _1  and  _5
REMARK    2  A    between atoms: _5  and  _6
REMARK    3  A    between atoms: _5  and  _8
REMARK    4  A    between atoms: _8  and  _9
REMARK    5  A    between atoms: _12  and  _14
REMARK    6  A    between atoms: _14  and  _15
REMARK    7  A    between atoms: _14  and  _17
REMARK    8  A    between atoms: _20  and  _22
REMARK    9  A    between atoms: _22  and  _23
REMARK   10  A    between atoms: _22  and  _25
REMARK   11  A    between atoms: _25  and  _26
REMARK   12  A    between atoms: _29  and  _31
REMARK   13  A    between atoms: _31  and  _32
REMARK   14  A    between atoms: _31  and  _34
REMARK   15  A    between atoms: _34  and  _35
REMARK   16  A    between atoms: _35  and  _53
REMARK   17  A    between atoms: _36  and  _38
REMARK   18  A    between atoms: _38  and  _39
REMARK   19  A    between atoms: _38  and  _41
REMARK   20  A    between atoms: _41  and  _42
REMARK   21  A    between atoms: _47  and  _49
REMARK   22  A    between atoms: _49  and  _50
REMARK   23  A    between atoms: _49  and  _52
REMARK   24  A    between atoms: _52  and  _53
REMARK   25  A    between atoms: _54  and  _56
REMARK   26  A    between atoms: _56  and  _57
REMARK   27  A    between atoms: _56  and  _59
REMARK   28  A    between atoms: _59  and  _60
REMARK   29  A    between atoms: _65  and  _66
REMARK   30  A    between atoms: _69  and  _70
REMARK   31  A    between atoms: _75  and  _77
REMARK   32  A    between atoms: _77  and  _78
REMARK   33  A    between atoms: _77  and  _80
REMARK   34  A    between atoms: _80  and  _81
REMARK   35  A    between atoms: _91  and  _93
REMARK   36  A    between atoms: _93  and  _94
REMARK   37  A    between atoms: _93  and  _96
REMARK   38  A    between atoms: _96  and  _97
REMARK   39  A    between atoms: _97  and  _98
REMARK   40  A    between atoms: _98  and  _99
REMARK   41  A    between atoms: _99  and  _100
REMARK   42  A    between atoms: _104  and  _106
REMARK   43  A    between atoms: _106  and  _107
REMARK   44  A    between atoms: _106  and  _109
REMARK   45  A    between atoms: _109  and  _110
REMARK   46  A    between atoms: _115  and  _116
REMARK   47  A    between atoms: _118  and  _120
REMARK   48  A    between atoms: _120  and  _121
REMARK   49  A    between atoms: _120  and  _123
REMARK   50  A    between atoms: _123  and  _124
REMARK   51  A    between atoms: _127  and  _129
REMARK   52  A    between atoms: _129  and  _130
REMARK   53  A    between atoms: _129  and  _132
REMARK   54  A    between atoms: _132  and  _133
REMARK   55  A    between atoms: _136  and  _138
REMARK   56  A    between atoms: _138  and  _139
REMARK   57  A    between atoms: _138  and  _141
REMARK   58  A    between atoms: _144  and  _146
REMARK   59  A    between atoms: _146  and  _147
REMARK   60  A    between atoms: _146  and  _149
REMARK   61  A    between atoms: _149  and  _150
REMARK   62  A    between atoms: _155  and  _157
REMARK   63  A    between atoms: _157  and  _158
REMARK   64  A    between atoms: _157  and  _160
REMARK   65  A    between atoms: _160  and  _161
REMARK   66  A    between atoms: _161  and  _162
REMARK   67  A    between atoms: _165  and  _167
REMARK   68  A    between atoms: _167  and  _168
REMARK   69  A    between atoms: _167  and  _170
REMARK   70  A    between atoms: _170  and  _171
REMARK   71  A    between atoms: _174  and  _176
REMARK   72  A    between atoms: _176  and  _177
REMARK   73  A    between atoms: _180  and  _182
REMARK   74  A    between atoms: _182  and  _183
REMARK   75  A    between atoms: _185  and  _187
REMARK   76  A    between atoms: _187  and  _188
REMARK   77  A    between atoms: _187  and  _190
REMARK   78  A    between atoms: _190  and  _191
REMARK   79  A    between atoms: _194  and  _196
REMARK   80  A    between atoms: _196  and  _197
REMARK   81  A    between atoms: _200  and  _202
REMARK   82  A    between atoms: _202  and  _203
REMARK   83  A    between atoms: _202  and  _205
REMARK   84  A    between atoms: _205  and  _206
REMARK   85  A    between atoms: _206  and  _307
REMARK   86  A    between atoms: _207  and  _209
REMARK   87  A    between atoms: _209  and  _210
REMARK   88  A    between atoms: _209  and  _212
REMARK   89  A    between atoms: _212  and  _213
REMARK   90  A    between atoms: _213  and  _214
REMARK   91  A    between atoms: _217  and  _219
REMARK   92  A    between atoms: _219  and  _220
REMARK   93  A    between atoms: _222  and  _224
REMARK   94  A    between atoms: _224  and  _225
REMARK   95  A    between atoms: _224  and  _227
REMARK   96  A    between atoms: _227  and  _228
REMARK   97  A    between atoms: _231  and  _233
REMARK   98  A    between atoms: _233  and  _234
REMARK   99  A    between atoms: _233  and  _236
REMARK  100  A    between atoms: _236  and  _237
REMARK  101  A    between atoms: _239  and  _241
REMARK  102  A    between atoms: _241  and  _242
REMARK  103  A    between atoms: _244  and  _246
REMARK  104  A    between atoms: _246  and  _247
REMARK  105  A    between atoms: _249  and  _251
REMARK  106  A    between atoms: _251  and  _252
REMARK  107  A    between atoms: _251  and  _254
REMARK  108  A    between atoms: _257  and  _259
REMARK  109  A    between atoms: _259  and  _260
REMARK  110  A    between atoms: _259  and  _262
REMARK  111  A    between atoms: _262  and  _263
REMARK  112  A    between atoms: _265  and  _267
REMARK  113  A    between atoms: _267  and  _268
REMARK  114  A    between atoms: _267  and  _270
REMARK  115  A    between atoms: _270  and  _271
REMARK  116  A    between atoms: _281  and  _283
REMARK  117  A    between atoms: _283  and  _284
REMARK  118  A    between atoms: _286  and  _288
REMARK  119  A    between atoms: _288  and  _289
REMARK  120  A    between atoms: _288  and  _291
REMARK  121  A    between atoms: _291  and  _292
REMARK  122  A    between atoms: _292  and  _293
REMARK  123  A    between atoms: _296  and  _298
REMARK  124  A    between atoms: _298  and  _299
REMARK  125  A    between atoms: _301  and  _303
REMARK  126  A    between atoms: _303  and  _304
REMARK  127  A    between atoms: _303  and  _306
REMARK  128  A    between atoms: _306  and  _307
REMARK  129  A    between atoms: _308  and  _310
REMARK  130  A    between atoms: _310  and  _311
REMARK  131  A    between atoms: _310  and  _313
REMARK  132  A    between atoms: _313  and  _314
REMARK  133  A    between atoms: _317  and  _319
REMARK  134  A    between atoms: _319  and  _320
REMARK  135  A    between atoms: _319  and  _322
REMARK  136  A    between atoms: _322  and  _323
REMARK  137  A    between atoms: _323  and  _324
REMARK  138  A    between atoms: _324  and  _325
REMARK  139  A    between atoms: _334  and  _336
REMARK  140  A    between atoms: _336  and  _337
REMARK  141  A    between atoms: _336  and  _339
REMARK  142  A    between atoms: _339  and  _340
REMARK  143  A    between atoms: _340  and  _341
REMARK  144  A    between atoms: _341  and  _342
REMARK  145  A    between atoms: _342  and  _343
REMARK  146  A    between atoms: _347  and  _349
REMARK  147  A    between atoms: _349  and  _350
REMARK  148  A    between atoms: _349  and  _352
REMARK  149  A    between atoms: _352  and  _353
REMARK  150  A    between atoms: _358  and  _359
REMARK  151  A    between atoms: _361  and  _363
REMARK  152  A    between atoms: _363  and  _364
REMARK  153  A    between atoms: _366  and  _368
REMARK  154  A    between atoms: _368  and  _369
REMARK  155  A    between atoms: _368  and  _371
REMARK  156  A    between atoms: _371  and  _372
REMARK  157  A    between atoms: _378  and  _380
REMARK  158  A    between atoms: _380  and  _381
REMARK  159  A    between atoms: _380  and  _383
REMARK  160  A    between atoms: _383  and  _384
REMARK  161  A    between atoms: _389  and  _390
REMARK                            x       y       z     vdW  Elec       q    Type
REMARK                         _______ _______ _______ _____ _____    ______ ____
ROOT
ATOM      1  CG  LYS A   1      22.544 -12.760  12.208  0.00  0.00    -0.000 C 
ENDROOT
BRANCH   1   2
ATOM      2  CB  LYS A   1      23.882 -12.147  12.254  0.00  0.00    +0.025 C 
BRANCH   2   3
ATOM      3  CA  LYS A   1      25.006 -12.814  11.483  0.00  0.00    +0.133 C 
BRANCH   3   4
ATOM      4  N   LYS A   1      25.674 -14.031  12.023  0.00  0.00    -0.239 NA
ATOM      5  H   LYS A   1      25.740 -14.195  13.048  0.00  0.00    +0.142 HD
ENDBRANCH   3   4
BRANCH   3   6
ATOM      6  C   LYS A   1      26.060 -11.778  11.692  0.00  0.00    +0.224 C 
ATOM      7  O   LYS A   1      26.601 -11.720  12.784  0.00  0.00    -0.287 OA
ENDBRANCH   3   6
ENDBRANCH   2   3
ENDBRANCH   1   2
BRANCH   1   8
ATOM      8  CD  LYS A   1      21.678 -11.740  13.009  0.00  0.00    -0.024 C 
BRANCH   8   9
ATOM      9  CE  LYS A   1      20.228 -12.194  13.191  0.00  0.00    -0.086 C 
BRANCH   9  10
ATOM     10  NZ  LYS A   1      19.543 -11.167  14.016  0.00  0.00    +0.380 N 
ATOM     11  HZ1 LYS A   1      20.020 -11.089  14.937  0.00  0.00    -0.089 HD
ATOM     12  HZ2 LYS A   1      18.551 -11.445  14.160  0.00  0.00    -0.089 HD
ATOM     13  HZ3 LYS A   1      19.580 -10.250  13.527  0.00  0.00    -0.089 HD
ENDBRANCH   9  10
ENDBRANCH   8   9
ENDBRANCH   1   8
TORSDOF 7
REMARK  Name = ../refined-set-2016/1ghy/1ghy_pocket.pdb
REMARK  161 active torsions:
REMARK  status: ('A' for Active; 'I' for Inactive)
REMARK    1  A    between atoms: _1  and  _5
REMARK    2  A    between atoms: _5  and  _6
REMARK    3  A    between atoms: _5  and  _8
REMARK    4  A    between atoms: _8  and  _9
REMARK    5  A    between atoms: _12  and  _14
REMARK    6  A    between atoms: _14  and  _15
REMARK    7  A    between atoms: _14  and  _17
REMARK    8  A    between atoms: _20  and  _22
REMARK    9  A    between atoms: _22  and  _23
REMARK   10  A    between atoms: _22  and  _25
REMARK   11  A    between atoms: _25  and  _26
REMARK   12  A    between atoms: _29  and  _31
REMARK   13  A    between atoms: _31  and  _32
REMARK   14  A    between atoms: _31  and  _34
REMARK   15  A    between atoms: _34  and  _35
REMARK   16  A    between atoms: _35  and  _53
REMARK   17  A    between atoms: _36  and  _38
REMARK   18  A    between atoms: _38  and  _39
REMARK   19  A    between atoms: _38  and  _41
REMARK   20  A    between atoms: _41  and  _42
REMARK   21  A    between atoms: _47  and  _49
REMARK   22  A    between atoms: _49  and  _50
REMARK   23  A    between atoms: _49  and  _52
REMARK   24  A    between atoms: _52  and  _53
REMARK   25  A    between atoms: _54  and  _56
REMARK   26  A    between atoms: _56  and  _57
REMARK   27  A    between atoms: _56  and  _59
REMARK   28  A    between atoms: _59  and  _60
REMARK   29  A    between atoms: _65  and  _66
REMARK   30  A    between atoms: _69  and  _70
REMARK   31  A    between atoms: _75  and  _77
REMARK   32  A    between atoms: _77  and  _78
REMARK   33  A    between atoms: _77  and  _80
REMARK   34  A    between atoms: _80  and  _81
REMARK   35  A    between atoms: _91  and  _93
REMARK   36  A    between atoms: _93  and  _94
REMARK   37  A    between atoms: _93  and  _96
REMARK   38  A    between atoms: _96  and  _97
REMARK   39  A    between atoms: _97  and  _98
REMARK   40  A    between atoms: _98  and  _99
REMARK   41  A    between atoms: _99  and  _100
REMARK   42  A    between atoms: _104  and  _106
REMARK   43  A    between atoms: _106  and  _107
REMARK   44  A    between atoms: _106  and  _109
REMARK   45  A    between atoms: _109  and  _110
REMARK   46  A    between atoms: _115  and  _116
REMARK   47  A    between atoms: _118  and  _120
REMARK   48  A    between atoms: _120  and  _121
REMARK   49  A    between atoms: _120  and  _123
REMARK   50  A    between atoms: _123  and  _124
REMARK   51  A    between atoms: _127  and  _129
REMARK   52  A    between atoms: _129  and  _130
REMARK   53  A    between atoms: _129  and  _132
REMARK   54  A    between atoms: _132  and  _133
REMARK   55  A    between atoms: _136  and  _138
REMARK   56  A    between atoms: _138  and  _139
REMARK   57  A    between atoms: _138  and  _141
REMARK   58  A    between atoms: _144  and  _146
REMARK   59  A    between atoms: _146  and  _147
REMARK   60  A    between atoms: _146  and  _149
REMARK   61  A    between atoms: _149  and  _150
REMARK   62  A    between atoms: _155  and  _157
REMARK   63  A    between atoms: _157  and  _158
REMARK   64  A    between atoms: _157  and  _160
REMARK   65  A    between atoms: _160  and  _161
REMARK   66  A    between atoms: _161  and  _162
REMARK   67  A    between atoms: _165  and  _167
REMARK   68  A    between atoms: _167  and  _168
REMARK   69  A    between atoms: _167  and  _170
REMARK   70  A    between atoms: _170  and  _171
REMARK   71  A    between atoms: _174  and  _176
REMARK   72  A    between atoms: _176  and  _177
REMARK   73  A    between atoms: _180  and  _182
REMARK   74  A    between atoms: _182  and  _183
REMARK   75  A    between atoms: _185  and  _187
REMARK   76  A    between atoms: _187  and  _188
REMARK   77  A    between atoms: _187  and  _190
REMARK   78  A    between atoms: _190  and  _191
REMARK   79  A    between atoms: _194  and  _196
REMARK   80  A    between atoms: _196  and  _197
REMARK   81  A    between atoms: _200  and  _202
REMARK   82  A    between atoms: _202  and  _203
REMARK   83  A    between atoms: _202  and  _205
REMARK   84  A    between atoms: _205  and  _206
REMARK   85  A    between atoms: _206  and  _307
REMARK   86  A    between atoms: _207  and  _209
REMARK   87  A    between atoms: _209  and  _210
REMARK   88  A    between atoms: _209  and  _212
REMARK   89  A    between atoms: _212  and  _213
REMARK   90  A    between atoms: _213  and  _214
REMARK   91  A    between atoms: _217  and  _219
REMARK   92  A    between atoms: _219  and  _220
REMARK   93  A    between atoms: _222  and  _224
REMARK   94  A    between atoms: _224  and  _225
REMARK   95  A    between atoms: _224  and  _227
REMARK   96  A    between atoms: _227  and  _228
REMARK   97  A    between atoms: _231  and  _233
REMARK   98  A    between atoms: _233  and  _234
REMARK   99  A    between atoms: _233  and  _236
REMARK  100  A    between atoms: _236  and  _237
REMARK  101  A    between atoms: _239  and  _241
REMARK  102  A    between atoms: _241  and  _242
REMARK  103  A    between atoms: _244  and  _246
REMARK  104  A    between atoms: _246  and  _247
REMARK  105  A    between atoms: _249  and  _251
REMARK  106  A    between atoms: _251  and  _252
REMARK  107  A    between atoms: _251  and  _254
REMARK  108  A    between atoms: _257  and  _259
REMARK  109  A    between atoms: _259  and  _260
REMARK  110  A    between atoms: _259  and  _262
REMARK  111  A    between atoms: _262  and  _263
REMARK  112  A    between atoms: _265  and  _267
REMARK  113  A    between atoms: _267  and  _268
REMARK  114  A    between atoms: _267  and  _270
REMARK  115  A    between atoms: _270  and  _271
REMARK  116  A    between atoms: _281  and  _283
REMARK  117  A    between atoms: _283  and  _284
REMARK  118  A    between atoms: _286  and  _288
REMARK  119  A    between atoms: _288  and  _289
REMARK  120  A    between atoms: _288  and  _291
REMARK  121  A    between atoms: _291  and  _292
REMARK  122  A    between atoms: _292  and  _293
REMARK  123  A    between atoms: _296  and  _298
REMARK  124  A    between atoms: _298  and  _299
REMARK  125  A    between atoms: _301  and  _303
REMARK  126  A    between atoms: _303  and  _304
REMARK  127  A    between atoms: _303  and  _306
REMARK  128  A    between atoms: _306  and  _307
REMARK  129  A    between atoms: _308  and  _310
REMARK  130  A    between atoms: _310  and  _311
REMARK  131  A    between atoms: _310  and  _313
REMARK  132  A    between atoms: _313  and  _314
REMARK  133  A    between atoms: _317  and  _319
REMARK  134  A    between atoms: _319  and  _320
REMARK  135  A    between atoms: _319  and  _322
REMARK  136  A    between atoms: _322  and  _323
REMARK  137  A    between atoms: _323  and  _324
REMARK  138  A    between atoms: _324  and  _325
REMARK  139  A    between atoms: _334  and  _336
REMARK  140  A    between atoms: _336  and  _337
REMARK  141  A    between atoms: _336  and  _339
REMARK  142  A    between atoms: _339  and  _340
REMARK  143  A    between atoms: _340  and  _341
REMARK  144  A    between atoms: _341  and  _342
REMARK  145  A    between atoms: _342  and  _343
REMARK  146  A    between atoms: _347  and  _349
REMARK  147  A    between atoms: _349  and  _350
REMARK  148  A    between atoms: _349  and  _352
REMARK  149  A    between atoms: _352  and  _353
REMARK  150  A    between atoms: _358  and  _359
REMARK  151  A    between atoms: _361  and  _363
REMARK  152  A    between atoms: _363  and  _364
REMARK  153  A    between atoms: _366  and  _368
REMARK  154  A    between atoms: _368  and  _369
REMARK  155  A    between atoms: _368  and  _371
REMARK  156  A    between atoms: _371  and  _372
REMARK  157  A    between atoms: _378  and  _380
REMARK  158  A    between atoms: _380  and  _381
REMARK  159  A    between atoms: _380  and  _383
REMARK  160  A    between atoms: _383  and  _384
REMARK  161  A    between atoms: _389  and  _390
REMARK                            x       y       z     vdW  Elec       q    Type
REMARK                         _______ _______ _______ _____ _____    ______ ____
ROOT
ATOM      1  CG  TYR A   1      27.039  -6.448  21.383  0.00  0.00    -0.020 A 
ATOM      2  CD2 TYR A   1      25.961  -6.971  22.049  0.00  0.00    -0.001 A 
ATOM      3  CE2 TYR A   1      25.238  -7.988  21.477  0.00  0.00    +0.036 A 
ATOM      4  CZ  TYR A   1      25.593  -8.487  20.234  0.00  0.00    +0.134 A 
ATOM      5  CE1 TYR A   1      26.670  -7.976  19.569  0.00  0.00    +0.036 A 
ATOM      6  CD1 TYR A   1      27.399  -6.951  20.143  0.00  0.00    -0.001 A 
ENDROOT
BRANCH   4   7
ATOM      7  OH  TYR A   1      24.833  -9.488  19.670  0.00  0.00    -0.506 OA
ATOM      8  HH  TYR A   1      24.451  -9.169  18.814  0.00  0.00    +0.292 HD
ENDBRANCH   4   7
BRANCH   1   9
ATOM      9  CB  TYR A   1      27.862  -5.277  21.958  0.00  0.00    +0.051 C 
BRANCH   9  10
ATOM     10  CA  TYR A   1      28.399  -5.502  23.413  0.00  0.00    +0.137 C 
BRANCH  10  11
ATOM     11  N   TYR A   1      29.660  -4.721  23.571  0.00  0.00    -0.239 NA
ATOM     12  H   TYR A   1      30.114  -4.300  22.735  0.00  0.00    +0.142 HD
ENDBRANCH  10  11
BRANCH  10  13
ATOM     13  C   TYR A   1      28.903  -6.942  23.666  0.00  0.00    +0.224 C 
ATOM     14  O   TYR A   1      29.814  -7.422  23.021  0.00  0.00    -0.287 OA
ENDBRANCH  10  13
ENDBRANCH   9  10
ENDBRANCH   1   9
TORSDOF 5
REMARK  Name = ../refined-set-2016/1ghy/1ghy_pocket.pdb
REMARK  161 active torsions:
REMARK  status: ('A' for Active; 'I' for Inactive)
REMARK    1  A    between atoms: _1  and  _5
REMARK    2  A    between atoms: _5  and  _6
REMARK    3  A    between atoms: _5  and  _8
REMARK    4  A    between atoms: _8  and  _9
REMARK    5  A    between atoms: _12  and  _14
REMARK    6  A    between atoms: _14  and  _15
REMARK    7  A    between atoms: _14  and  _17
REMARK    8  A    between atoms: _20  and  _22
REMARK    9  A    between atoms: _22  and  _23
REMARK   10  A    between atoms: _22  and  _25
REMARK   11  A    between atoms: _25  and  _26
REMARK   12  A    between atoms: _29  and  _31
REMARK   13  A    between atoms: _31  and  _32
REMARK   14  A    between atoms: _31  and  _34
REMARK   15  A    between atoms: _34  and  _35
REMARK   16  A    between atoms: _35  and  _53
REMARK   17  A    between atoms: _36  and  _38
REMARK   18  A    between atoms: _38  and  _39
REMARK   19  A    between atoms: _38  and  _41
REMARK   20  A    between atoms: _41  and  _42
REMARK   21  A    between atoms: _47  and  _49
REMARK   22  A    between atoms: _49  and  _50
REMARK   23  A    between atoms: _49  and  _52
REMARK   24  A    between atoms: _52  and  _53
REMARK   25  A    between atoms: _54  and  _56
REMARK   26  A    between atoms: _56  and  _57
REMARK   27  A    between atoms: _56  and  _59
REMARK   28  A    between atoms: _59  and  _60
REMARK   29  A    between atoms: _65  and  _66
REMARK   30  A    between atoms: _69  and  _70
REMARK   31  A    between atoms: _75  and  _77
REMARK   32  A    between atoms: _77  and  _78
REMARK   33  A    between atoms: _77  and  _80
REMARK   34  A    between atoms: _80  and  _81
REMARK   35  A    between atoms: _91  and  _93
REMARK   36  A    between atoms: _93  and  _94
REMARK   37  A    between atoms: _93  and  _96
REMARK   38  A    between atoms: _96  and  _97
REMARK   39  A    between atoms: _97  and  _98
REMARK   40  A    between atoms: _98  and  _99
REMARK   41  A    between atoms: _99  and  _100
REMARK   42  A    between atoms: _104  and  _106
REMARK   43  A    between atoms: _106  and  _107
REMARK   44  A    between atoms: _106  and  _109
REMARK   45  A    between atoms: _109  and  _110
REMARK   46  A    between atoms: _115  and  _116
REMARK   47  A    between atoms: _118  and  _120
REMARK   48  A    between atoms: _120  and  _121
REMARK   49  A    between atoms: _120  and  _123
REMARK   50  A    between atoms: _123  and  _124
REMARK   51  A    between atoms: _127  and  _129
REMARK   52  A    between atoms: _129  and  _130
REMARK   53  A    between atoms: _129  and  _132
REMARK   54  A    between atoms: _132  and  _133
REMARK   55  A    between atoms: _136  and  _138
REMARK   56  A    between atoms: _138  and  _139
REMARK   57  A    between atoms: _138  and  _141
REMARK   58  A    between atoms: _144  and  _146
REMARK   59  A    between atoms: _146  and  _147
REMARK   60  A    between atoms: _146  and  _149
REMARK   61  A    between atoms: _149  and  _150
REMARK   62  A    between atoms: _155  and  _157
REMARK   63  A    between atoms: _157  and  _158
REMARK   64  A    between atoms: _157  and  _160
REMARK   65  A    between atoms: _160  and  _161
REMARK   66  A    between atoms: _161  and  _162
REMARK   67  A    between atoms: _165  and  _167
REMARK   68  A    between atoms: _167  and  _168
REMARK   69  A    between atoms: _167  and  _170
REMARK   70  A    between atoms: _170  and  _171
REMARK   71  A    between atoms: _174  and  _176
REMARK   72  A    between atoms: _176  and  _177
REMARK   73  A    between atoms: _180  and  _182
REMARK   74  A    between atoms: _182  and  _183
REMARK   75  A    between atoms: _185  and  _187
REMARK   76  A    between atoms: _187  and  _188
REMARK   77  A    between atoms: _187  and  _190
REMARK   78  A    between atoms: _190  and  _191
REMARK   79  A    between atoms: _194  and  _196
REMARK   80  A    between atoms: _196  and  _197
REMARK   81  A    between atoms: _200  and  _202
REMARK   82  A    between atoms: _202  and  _203
REMARK   83  A    between atoms: _202  and  _205
REMARK   84  A    between atoms: _205  and  _206
REMARK   85  A    between atoms: _206  and  _307
REMARK   86  A    between atoms: _207  and  _209
REMARK   87  A    between atoms: _209  and  _210
REMARK   88  A    between atoms: _209  and  _212
REMARK   89  A    between atoms: _212  and  _213
REMARK   90  A    between atoms: _213  and  _214
REMARK   91  A    between atoms: _217  and  _219
REMARK   92  A    between atoms: _219  and  _220
REMARK   93  A    between atoms: _222  and  _224
REMARK   94  A    between atoms: _224  and  _225
REMARK   95  A    between atoms: _224  and  _227
REMARK   96  A    between atoms: _227  and  _228
REMARK   97  A    between atoms: _231  and  _233
REMARK   98  A    between atoms: _233  and  _234
REMARK   99  A    between atoms: _233  and  _236
REMARK  100  A    between atoms: _236  and  _237
REMARK  101  A    between atoms: _239  and  _241
REMARK  102  A    between atoms: _241  and  _242
REMARK  103  A    between atoms: _244  and  _246
REMARK  104  A    between atoms: _246  and  _247
REMARK  105  A    between atoms: _249  and  _251
REMARK  106  A    between atoms: _251  and  _252
REMARK  107  A    between atoms: _251  and  _254
REMARK  108  A    between atoms: _257  and  _259
REMARK  109  A    between atoms: _259  and  _260
REMARK  110  A    between atoms: _259  and  _262
REMARK  111  A    between atoms: _262  and  _263
REMARK  112  A    between atoms: _265  and  _267
REMARK  113  A    between atoms: _267  and  _268
REMARK  114  A    between atoms: _267  and  _270
REMARK  115  A    between atoms: _270  and  _271
REMARK  116  A    between atoms: _281  and  _283
REMARK  117  A    between atoms: _283  and  _284
REMARK  118  A    between atoms: _286  and  _288
REMARK  119  A    between atoms: _288  and  _289
REMARK  120  A    between atoms: _288  and  _291
REMARK  121  A    between atoms: _291  and  _292
REMARK  122  A    between atoms: _292  and  _293
REMARK  123  A    between atoms: _296  and  _298
REMARK  124  A    between atoms: _298  and  _299
REMARK  125  A    between atoms: _301  and  _303
REMARK  126  A    between atoms: _303  and  _304
REMARK  127  A    between atoms: _303  and  _306
REMARK  128  A    between atoms: _306  and  _307
REMARK  129  A    between atoms: _308  and  _310
REMARK  130  A    between atoms: _310  and  _311
REMARK  131  A    between atoms: _310  and  _313
REMARK  132  A    between atoms: _313  and  _314
REMARK  133  A    between atoms: _317  and  _319
REMARK  134  A    between atoms: _319  and  _320
REMARK  135  A    between atoms: _319  and  _322
REMARK  136  A    between atoms: _322  and  _323
REMARK  137  A    between atoms: _323  and  _324
REMARK  138  A    between atoms: _324  and  _325
REMARK  139  A    between atoms: _334  and  _336
REMARK  140  A    between atoms: _336  and  _337
REMARK  141  A    between atoms: _336  and  _339
REMARK  142  A    between atoms: _339  and  _340
REMARK  143  A    between atoms: _340  and  _341
REMARK  144  A    between atoms: _341  and  _342
REMARK  145  A    between atoms: _342  and  _343
REMARK  146  A    between atoms: _347  and  _349
REMARK  147  A    between atoms: _349  and  _350
REMARK  148  A    between atoms: _349  and  _352
REMARK  149  A    between atoms: _352  and  _353
REMARK  150  A    between atoms: _358  and  _359
REMARK  151  A    between atoms: _361  and  _363
REMARK  152  A    between atoms: _363  and  _364
REMARK  153  A    between atoms: _366  and  _368
REMARK  154  A    between atoms: _368  and  _369
REMARK  155  A    between atoms: _368  and  _371
REMARK  156  A    between atoms: _371  and  _372
REMARK  157  A    between atoms: _378  and  _380
REMARK  158  A    between atoms: _380  and  _381
REMARK  159  A    between atoms: _380  and  _383
REMARK  160  A    between atoms: _383  and  _384
REMARK  161  A    between atoms: _389  and  _390
REMARK                            x       y       z     vdW  Elec       q    Type
REMARK                         _______ _______ _______ _____ _____    ______ ____
ROOT
ATOM      1  CA  LEU A   1      23.866  -9.619  25.279  0.00  0.00    +0.133 C 
ENDROOT
BRANCH   1   2
ATOM      2  N   LEU A   1      24.242 -10.768  26.187  0.00  0.00    -0.239 NA
ATOM      3  H   LEU A   1      25.088 -11.320  25.941  0.00  0.00    +0.142 HD
ENDBRANCH   1   2
BRANCH   1   4
ATOM      4  C   LEU A   1      23.811  -8.317  26.052  0.00  0.00    +0.224 C 
ATOM      5  O   LEU A   1      22.910  -7.510  25.920  0.00  0.00    -0.287 OA
ENDBRANCH   1   4
BRANCH   1   6
ATOM      6  CB  LEU A   1      22.477  -9.841  24.617  0.00  0.00    +0.025 C 
BRANCH   6   7
ATOM      7  CG  LEU A   1      22.453 -11.075  23.709  0.00  0.00    +0.002 C 
ATOM      8  CD2 LEU A   1      21.009 -11.230  23.107  0.00  0.00    +0.000 C 
ATOM      9  CD1 LEU A   1      23.471 -10.910  22.610  0.00  0.00    +0.000 C 
ENDBRANCH   6   7
ENDBRANCH   1   6
TORSDOF 4
REMARK  Name = ../refined-set-2016/1ghy/1ghy_pocket.pdb
REMARK  161 active torsions:
REMARK  status: ('A' for Active; 'I' for Inactive)
REMARK    1  A    between atoms: _1  and  _5
REMARK    2  A    between atoms: _5  and  _6
REMARK    3  A    between atoms: _5  and  _8
REMARK    4  A    between atoms: _8  and  _9
REMARK    5  A    between atoms: _12  and  _14
REMARK    6  A    between atoms: _14  and  _15
REMARK    7  A    between atoms: _14  and  _17
REMARK    8  A    between atoms: _20  and  _22
REMARK    9  A    between atoms: _22  and  _23
REMARK   10  A    between atoms: _22  and  _25
REMARK   11  A    between atoms: _25  and  _26
REMARK   12  A    between atoms: _29  and  _31
REMARK   13  A    between atoms: _31  and  _32
REMARK   14  A    between atoms: _31  and  _34
REMARK   15  A    between atoms: _34  and  _35
REMARK   16  A    between atoms: _35  and  _53
REMARK   17  A    between atoms: _36  and  _38
REMARK   18  A    between atoms: _38  and  _39
REMARK   19  A    between atoms: _38  and  _41
REMARK   20  A    between atoms: _41  and  _42
REMARK   21  A    between atoms: _47  and  _49
REMARK   22  A    between atoms: _49  and  _50
REMARK   23  A    between atoms: _49  and  _52
REMARK   24  A    between atoms: _52  and  _53
REMARK   25  A    between atoms: _54  and  _56
REMARK   26  A    between atoms: _56  and  _57
REMARK   27  A    between atoms: _56  and  _59
REMARK   28  A    between atoms: _59  and  _60
REMARK   29  A    between atoms: _65  and  _66
REMARK   30  A    between atoms: _69  and  _70
REMARK   31  A    between atoms: _75  and  _77
REMARK   32  A    between atoms: _77  and  _78
REMARK   33  A    between atoms: _77  and  _80
REMARK   34  A    between atoms: _80  and  _81
REMARK   35  A    between atoms: _91  and  _93
REMARK   36  A    between atoms: _93  and  _94
REMARK   37  A    between atoms: _93  and  _96
REMARK   38  A    between atoms: _96  and  _97
REMARK   39  A    between atoms: _97  and  _98
REMARK   40  A    between atoms: _98  and  _99
REMARK   41  A    between atoms: _99  and  _100
REMARK   42  A    between atoms: _104  and  _106
REMARK   43  A    between atoms: _106  and  _107
REMARK   44  A    between atoms: _106  and  _109
REMARK   45  A    between atoms: _109  and  _110
REMARK   46  A    between atoms: _115  and  _116
REMARK   47  A    between atoms: _118  and  _120
REMARK   48  A    between atoms: _120  and  _121
REMARK   49  A    between atoms: _120  and  _123
REMARK   50  A    between atoms: _123  and  _124
REMARK   51  A    between atoms: _127  and  _129
REMARK   52  A    between atoms: _129  and  _130
REMARK   53  A    between atoms: _129  and  _132
REMARK   54  A    between atoms: _132  and  _133
REMARK   55  A    between atoms: _136  and  _138
REMARK   56  A    between atoms: _138  and  _139
REMARK   57  A    between atoms: _138  and  _141
REMARK   58  A    between atoms: _144  and  _146
REMARK   59  A    between atoms: _146  and  _147
REMARK   60  A    between atoms: _146  and  _149
REMARK   61  A    between atoms: _149  and  _150
REMARK   62  A    between atoms: _155  and  _157
REMARK   63  A    between atoms: _157  and  _158
REMARK   64  A    between atoms: _157  and  _160
REMARK   65  A    between atoms: _160  and  _161
REMARK   66  A    between atoms: _161  and  _162
REMARK   67  A    between atoms: _165  and  _167
REMARK   68  A    between atoms: _167  and  _168
REMARK   69  A    between atoms: _167  and  _170
REMARK   70  A    between atoms: _170  and  _171
REMARK   71  A    between atoms: _174  and  _176
REMARK   72  A    between atoms: _176  and  _177
REMARK   73  A    between atoms: _180  and  _182
REMARK   74  A    between atoms: _182  and  _183
REMARK   75  A    between atoms: _185  and  _187
REMARK   76  A    between atoms: _187  and  _188
REMARK   77  A    between atoms: _187  and  _190
REMARK   78  A    between atoms: _190  and  _191
REMARK   79  A    between atoms: _194  and  _196
REMARK   80  A    between atoms: _196  and  _197
REMARK   81  A    between atoms: _200  and  _202
REMARK   82  A    between atoms: _202  and  _203
REMARK   83  A    between atoms: _202  and  _205
REMARK   84  A    between atoms: _205  and  _206
REMARK   85  A    between atoms: _206  and  _307
REMARK   86  A    between atoms: _207  and  _209
REMARK   87  A    between atoms: _209  and  _210
REMARK   88  A    between atoms: _209  and  _212
REMARK   89  A    between atoms: _212  and  _213
REMARK   90  A    between atoms: _213  and  _214
REMARK   91  A    between atoms: _217  and  _219
REMARK   92  A    between atoms: _219  and  _220
REMARK   93  A    between atoms: _222  and  _224
REMARK   94  A    between atoms: _224  and  _225
REMARK   95  A    between atoms: _224  and  _227
REMARK   96  A    between atoms: _227  and  _228
REMARK   97  A    between atoms: _231  and  _233
REMARK   98  A    between atoms: _233  and  _234
REMARK   99  A    between atoms: _233  and  _236
REMARK  100  A    between atoms: _236  and  _237
REMARK  101  A    between atoms: _239  and  _241
REMARK  102  A    between atoms: _241  and  _242
REMARK  103  A    between atoms: _244  and  _246
REMARK  104  A    between atoms: _246  and  _247
REMARK  105  A    between atoms: _249  and  _251
REMARK  106  A    between atoms: _251  and  _252
REMARK  107  A    between atoms: _251  and  _254
REMARK  108  A    between atoms: _257  and  _259
REMARK  109  A    between atoms: _259  and  _260
REMARK  110  A    between atoms: _259  and  _262
REMARK  111  A    between atoms: _262  and  _263
REMARK  112  A    between atoms: _265  and  _267
REMARK  113  A    between atoms: _267  and  _268
REMARK  114  A    between atoms: _267  and  _270
REMARK  115  A    between atoms: _270  and  _271
REMARK  116  A    between atoms: _281  and  _283
REMARK  117  A    between atoms: _283  and  _284
REMARK  118  A    between atoms: _286  and  _288
REMARK  119  A    between atoms: _288  and  _289
REMARK  120  A    between atoms: _288  and  _291
REMARK  121  A    between atoms: _291  and  _292
REMARK  122  A    between atoms: _292  and  _293
REMARK  123  A    between atoms: _296  and  _298
REMARK  124  A    between atoms: _298  and  _299
REMARK  125  A    between atoms: _301  and  _303
REMARK  126  A    between atoms: _303  and  _304
REMARK  127  A    between atoms: _303  and  _306
REMARK  128  A    between atoms: _306  and  _307
REMARK  129  A    between atoms: _308  and  _310
REMARK  130  A    between atoms: _310  and  _311
REMARK  131  A    between atoms: _310  and  _313
REMARK  132  A    between atoms: _313  and  _314
REMARK  133  A    between atoms: _317  and  _319
REMARK  134  A    between atoms: _319  and  _320
REMARK  135  A    between atoms: _319  and  _322
REMARK  136  A    between atoms: _322  and  _323
REMARK  137  A    between atoms: _323  and  _324
REMARK  138  A    between atoms: _324  and  _325
REMARK  139  A    between atoms: _334  and  _336
REMARK  140  A    between atoms: _336  and  _337
REMARK  141  A    between atoms: _336  and  _339
REMARK  142  A    between atoms: _339  and  _340
REMARK  143  A    between atoms: _340  and  _341
REMARK  144  A    between atoms: _341  and  _342
REMARK  145  A    between atoms: _342  and  _343
REMARK  146  A    between atoms: _347  and  _349
REMARK  147  A    between atoms: _349  and  _350
REMARK  148  A    between atoms: _349  and  _352
REMARK  149  A    between atoms: _352  and  _353
REMARK  150  A    between atoms: _358  and  _359
REMARK  151  A    between atoms: _361  and  _363
REMARK  152  A    between atoms: _363  and  _364
REMARK  153  A    between atoms: _366  and  _368
REMARK  154  A    between atoms: _368  and  _369
REMARK  155  A    between atoms: _368  and  _371
REMARK  156  A    between atoms: _371  and  _372
REMARK  157  A    between atoms: _378  and  _380
REMARK  158  A    between atoms: _380  and  _381
REMARK  159  A    between atoms: _380  and  _383
REMARK  160  A    between atoms: _383  and  _384
REMARK  161  A    between atoms: _389  and  _390
REMARK                            x       y       z     vdW  Elec       q    Type
REMARK                         _______ _______ _______ _____ _____    ______ ____
ROOT
ATOM      1  CA  ASP A   1      22.899  -4.723  23.110  0.00  0.00    +0.144 C 
ENDROOT
BRANCH   1   2
ATOM      2  N   ASP A   1      23.428  -4.326  24.417  0.00  0.00    -0.239 NA
ATOM      3  H   ASP A   1      22.853  -4.472  25.271  0.00  0.00    +0.142 HD
ENDBRANCH   1   2
BRANCH   1   4
ATOM      4  C   ASP A   1      22.299  -3.423  22.521  0.00  0.00    +0.225 C 
ATOM      5  O   ASP A   1      21.106  -3.195  22.630  0.00  0.00    -0.287 OA
ENDBRANCH   1   4
BRANCH   1   6
ATOM      6  CB  ASP A   1      21.872  -5.781  23.381  0.00  0.00    +0.139 C 
BRANCH   6   7
ATOM      7  CG  ASP A   1      21.238  -6.399  22.106  0.00  0.00    +0.367 C 
ATOM      8  OD2 ASP A   1      20.170  -6.972  22.273  0.00  0.00    -0.246 OA
ATOM      9  OD1 ASP A   1      21.835  -6.287  21.056  0.00  0.00    -0.246 OA
ENDBRANCH   6   7
ENDBRANCH   1   6
TORSDOF 4
REMARK  Name = ../refined-set-2016/1ghy/1ghy_pocket.pdb
REMARK  161 active torsions:
REMARK  status: ('A' for Active; 'I' for Inactive)
REMARK    1  A    between atoms: _1  and  _5
REMARK    2  A    between atoms: _5  and  _6
REMARK    3  A    between atoms: _5  and  _8
REMARK    4  A    between atoms: _8  and  _9
REMARK    5  A    between atoms: _12  and  _14
REMARK    6  A    between atoms: _14  and  _15
REMARK    7  A    between atoms: _14  and  _17
REMARK    8  A    between atoms: _20  and  _22
REMARK    9  A    between atoms: _22  and  _23
REMARK   10  A    between atoms: _22  and  _25
REMARK   11  A    between atoms: _25  and  _26
REMARK   12  A    between atoms: _29  and  _31
REMARK   13  A    between atoms: _31  and  _32
REMARK   14  A    between atoms: _31  and  _34
REMARK   15  A    between atoms: _34  and  _35
REMARK   16  A    between atoms: _35  and  _53
REMARK   17  A    between atoms: _36  and  _38
REMARK   18  A    between atoms: _38  and  _39
REMARK   19  A    between atoms: _38  and  _41
REMARK   20  A    between atoms: _41  and  _42
REMARK   21  A    between atoms: _47  and  _49
REMARK   22  A    between atoms: _49  and  _50
REMARK   23  A    between atoms: _49  and  _52
REMARK   24  A    between atoms: _52  and  _53
REMARK   25  A    between atoms: _54  and  _56
REMARK   26  A    between atoms: _56  and  _57
REMARK   27  A    between atoms: _56  and  _59
REMARK   28  A    between atoms: _59  and  _60
REMARK   29  A    between atoms: _65  and  _66
REMARK   30  A    between atoms: _69  and  _70
REMARK   31  A    between atoms: _75  and  _77
REMARK   32  A    between atoms: _77  and  _78
REMARK   33  A    between atoms: _77  and  _80
REMARK   34  A    between atoms: _80  and  _81
REMARK   35  A    between atoms: _91  and  _93
REMARK   36  A    between atoms: _93  and  _94
REMARK   37  A    between atoms: _93  and  _96
REMARK   38  A    between atoms: _96  and  _97
REMARK   39  A    between atoms: _97  and  _98
REMARK   40  A    between atoms: _98  and  _99
REMARK   41  A    between atoms: _99  and  _100
REMARK   42  A    between atoms: _104  and  _106
REMARK   43  A    between atoms: _106  and  _107
REMARK   44  A    between atoms: _106  and  _109
REMARK   45  A    between atoms: _109  and  _110
REMARK   46  A    between atoms: _115  and  _116
REMARK   47  A    between atoms: _118  and  _120
REMARK   48  A    between atoms: _120  and  _121
REMARK   49  A    between atoms: _120  and  _123
REMARK   50  A    between atoms: _123  and  _124
REMARK   51  A    between atoms: _127  and  _129
REMARK   52  A    between atoms: _129  and  _130
REMARK   53  A    between atoms: _129  and  _132
REMARK   54  A    between atoms: _132  and  _133
REMARK   55  A    between atoms: _136  and  _138
REMARK   56  A    between atoms: _138  and  _139
REMARK   57  A    between atoms: _138  and  _141
REMARK   58  A    between atoms: _144  and  _146
REMARK   59  A    between atoms: _146  and  _147
REMARK   60  A    between atoms: _146  and  _149
REMARK   61  A    between atoms: _149  and  _150
REMARK   62  A    between atoms: _155  and  _157
REMARK   63  A    between atoms: _157  and  _158
REMARK   64  A    between atoms: _157  and  _160
REMARK   65  A    between atoms: _160  and  _161
REMARK   66  A    between atoms: _161  and  _162
REMARK   67  A    between atoms: _165  and  _167
REMARK   68  A    between atoms: _167  and  _168
REMARK   69  A    between atoms: _167  and  _170
REMARK   70  A    between atoms: _170  and  _171
REMARK   71  A    between atoms: _174  and  _176
REMARK   72  A    between atoms: _176  and  _177
REMARK   73  A    between atoms: _180  and  _182
REMARK   74  A    between atoms: _182  and  _183
REMARK   75  A    between atoms: _185  and  _187
REMARK   76  A    between atoms: _187  and  _188
REMARK   77  A    between atoms: _187  and  _190
REMARK   78  A    between atoms: _190  and  _191
REMARK   79  A    between atoms: _194  and  _196
REMARK   80  A    between atoms: _196  and  _197
REMARK   81  A    between atoms: _200  and  _202
REMARK   82  A    between atoms: _202  and  _203
REMARK   83  A    between atoms: _202  and  _205
REMARK   84  A    between atoms: _205  and  _206
REMARK   85  A    between atoms: _206  and  _307
REMARK   86  A    between atoms: _207  and  _209
REMARK   87  A    between atoms: _209  and  _210
REMARK   88  A    between atoms: _209  and  _212
REMARK   89  A    between atoms: _212  and  _213
REMARK   90  A    between atoms: _213  and  _214
REMARK   91  A    between atoms: _217  and  _219
REMARK   92  A    between atoms: _219  and  _220
REMARK   93  A    between atoms: _222  and  _224
REMARK   94  A    between atoms: _224  and  _225
REMARK   95  A    between atoms: _224  and  _227
REMARK   96  A    between atoms: _227  and  _228
REMARK   97  A    between atoms: _231  and  _233
REMARK   98  A    between atoms: _233  and  _234
REMARK   99  A    between atoms: _233  and  _236
REMARK  100  A    between atoms: _236  and  _237
REMARK  101  A    between atoms: _239  and  _241
REMARK  102  A    between atoms: _241  and  _242
REMARK  103  A    between atoms: _244  and  _246
REMARK  104  A    between atoms: _246  and  _247
REMARK  105  A    between atoms: _249  and  _251
REMARK  106  A    between atoms: _251  and  _252
REMARK  107  A    between atoms: _251  and  _254
REMARK  108  A    between atoms: _257  and  _259
REMARK  109  A    between atoms: _259  and  _260
REMARK  110  A    between atoms: _259  and  _262
REMARK  111  A    between atoms: _262  and  _263
REMARK  112  A    between atoms: _265  and  _267
REMARK  113  A    between atoms: _267  and  _268
REMARK  114  A    between atoms: _267  and  _270
REMARK  115  A    between atoms: _270  and  _271
REMARK  116  A    between atoms: _281  and  _283
REMARK  117  A    between atoms: _283  and  _284
REMARK  118  A    between atoms: _286  and  _288
REMARK  119  A    between atoms: _288  and  _289
REMARK  120  A    between atoms: _288  and  _291
REMARK  121  A    between atoms: _291  and  _292
REMARK  122  A    between atoms: _292  and  _293
REMARK  123  A    between atoms: _296  and  _298
REMARK  124  A    between atoms: _298  and  _299
REMARK  125  A    between atoms: _301  and  _303
REMARK  126  A    between atoms: _303  and  _304
REMARK  127  A    between atoms: _303  and  _306
REMARK  128  A    between atoms: _306  and  _307
REMARK  129  A    between atoms: _308  and  _310
REMARK  130  A    between atoms: _310  and  _311
REMARK  131  A    between atoms: _310  and  _313
REMARK  132  A    between atoms: _313  and  _314
REMARK  133  A    between atoms: _317  and  _319
REMARK  134  A    between atoms: _319  and  _320
REMARK  135  A    between atoms: _319  and  _322
REMARK  136  A    between atoms: _322  and  _323
REMARK  137  A    between atoms: _323  and  _324
REMARK  138  A    between atoms: _324  and  _325
REMARK  139  A    between atoms: _334  and  _336
REMARK  140  A    between atoms: _336  and  _337
REMARK  141  A    between atoms: _336  and  _339
REMARK  142  A    between atoms: _339  and  _340
REMARK  143  A    between atoms: _340  and  _341
REMARK  144  A    between atoms: _341  and  _342
REMARK  145  A    between atoms: _342  and  _343
REMARK  146  A    between atoms: _347  and  _349
REMARK  147  A    between atoms: _349  and  _350
REMARK  148  A    between atoms: _349  and  _352
REMARK  149  A    between atoms: _352  and  _353
REMARK  150  A    between atoms: _358  and  _359
REMARK  151  A    between atoms: _361  and  _363
REMARK  152  A    between atoms: _363  and  _364
REMARK  153  A    between atoms: _366  and  _368
REMARK  154  A    between atoms: _368  and  _369
REMARK  155  A    between atoms: _368  and  _371
REMARK  156  A    between atoms: _371  and  _372
REMARK  157  A    between atoms: _378  and  _380
REMARK  158  A    between atoms: _380  and  _381
REMARK  159  A    between atoms: _380  and  _383
REMARK  160  A    between atoms: _383  and  _384
REMARK  161  A    between atoms: _389  and  _390
REMARK                            x       y       z     vdW  Elec       q    Type
REMARK                         _______ _______ _______ _____ _____    ______ ____
ROOT
ATOM      1  CA  VAL A   1       6.658  -2.024  22.741  0.00  0.00    +0.133 C 
ENDROOT
BRANCH   1   2
ATOM      2  CB  VAL A   1       7.128  -3.431  23.217  0.00  0.00    +0.023 C 
ATOM      3  CG2 VAL A   1       7.375  -3.448  24.721  0.00  0.00    +0.002 C 
ATOM      4  CG1 VAL A   1       8.382  -3.841  22.490  0.00  0.00    +0.002 C 
ENDBRANCH   1   2
BRANCH   1   5
ATOM      5  N   VAL A   1       5.681  -1.446  23.702  0.00  0.00    -0.239 NA
ATOM      6  H   VAL A   1       4.798  -1.956  23.908  0.00  0.00    +0.142 HD
ENDBRANCH   1   5
BRANCH   1   7
ATOM      7  C   VAL A   1       5.852  -2.165  21.418  0.00  0.00    +0.224 C 
ATOM      8  O   VAL A   1       4.653  -2.410  21.460  0.00  0.00    -0.287 OA
ENDBRANCH   1   7
TORSDOF 3
REMARK  Name = ../refined-set-2016/1ghy/1ghy_pocket.pdb
REMARK  161 active torsions:
REMARK  status: ('A' for Active; 'I' for Inactive)
REMARK    1  A    between atoms: _1  and  _5
REMARK    2  A    between atoms: _5  and  _6
REMARK    3  A    between atoms: _5  and  _8
REMARK    4  A    between atoms: _8  and  _9
REMARK    5  A    between atoms: _12  and  _14
REMARK    6  A    between atoms: _14  and  _15
REMARK    7  A    between atoms: _14  and  _17
REMARK    8  A    between atoms: _20  and  _22
REMARK    9  A    between atoms: _22  and  _23
REMARK   10  A    between atoms: _22  and  _25
REMARK   11  A    between atoms: _25  and  _26
REMARK   12  A    between atoms: _29  and  _31
REMARK   13  A    between atoms: _31  and  _32
REMARK   14  A    between atoms: _31  and  _34
REMARK   15  A    between atoms: _34  and  _35
REMARK   16  A    between atoms: _35  and  _53
REMARK   17  A    between atoms: _36  and  _38
REMARK   18  A    between atoms: _38  and  _39
REMARK   19  A    between atoms: _38  and  _41
REMARK   20  A    between atoms: _41  and  _42
REMARK   21  A    between atoms: _47  and  _49
REMARK   22  A    between atoms: _49  and  _50
REMARK   23  A    between atoms: _49  and  _52
REMARK   24  A    between atoms: _52  and  _53
REMARK   25  A    between atoms: _54  and  _56
REMARK   26  A    between atoms: _56  and  _57
REMARK   27  A    between atoms: _56  and  _59
REMARK   28  A    between atoms: _59  and  _60
REMARK   29  A    between atoms: _65  and  _66
REMARK   30  A    between atoms: _69  and  _70
REMARK   31  A    between atoms: _75  and  _77
REMARK   32  A    between atoms: _77  and  _78
REMARK   33  A    between atoms: _77  and  _80
REMARK   34  A    between atoms: _80  and  _81
REMARK   35  A    between atoms: _91  and  _93
REMARK   36  A    between atoms: _93  and  _94
REMARK   37  A    between atoms: _93  and  _96
REMARK   38  A    between atoms: _96  and  _97
REMARK   39  A    between atoms: _97  and  _98
REMARK   40  A    between atoms: _98  and  _99
REMARK   41  A    between atoms: _99  and  _100
REMARK   42  A    between atoms: _104  and  _106
REMARK   43  A    between atoms: _106  and  _107
REMARK   44  A    between atoms: _106  and  _109
REMARK   45  A    between atoms: _109  and  _110
REMARK   46  A    between atoms: _115  and  _116
REMARK   47  A    between atoms: _118  and  _120
REMARK   48  A    between atoms: _120  and  _121
REMARK   49  A    between atoms: _120  and  _123
REMARK   50  A    between atoms: _123  and  _124
REMARK   51  A    between atoms: _127  and  _129
REMARK   52  A    between atoms: _129  and  _130
REMARK   53  A    between atoms: _129  and  _132
REMARK   54  A    between atoms: _132  and  _133
REMARK   55  A    between atoms: _136  and  _138
REMARK   56  A    between atoms: _138  and  _139
REMARK   57  A    between atoms: _138  and  _141
REMARK   58  A    between atoms: _144  and  _146
REMARK   59  A    between atoms: _146  and  _147
REMARK   60  A    between atoms: _146  and  _149
REMARK   61  A    between atoms: _149  and  _150
REMARK   62  A    between atoms: _155  and  _157
REMARK   63  A    between atoms: _157  and  _158
REMARK   64  A    between atoms: _157  and  _160
REMARK   65  A    between atoms: _160  and  _161
REMARK   66  A    between atoms: _161  and  _162
REMARK   67  A    between atoms: _165  and  _167
REMARK   68  A    between atoms: _167  and  _168
REMARK   69  A    between atoms: _167  and  _170
REMARK   70  A    between atoms: _170  and  _171
REMARK   71  A    between atoms: _174  and  _176
REMARK   72  A    between atoms: _176  and  _177
REMARK   73  A    between atoms: _180  and  _182
REMARK   74  A    between atoms: _182  and  _183
REMARK   75  A    between atoms: _185  and  _187
REMARK   76  A    between atoms: _187  and  _188
REMARK   77  A    between atoms: _187  and  _190
REMARK   78  A    between atoms: _190  and  _191
REMARK   79  A    between atoms: _194  and  _196
REMARK   80  A    between atoms: _196  and  _197
REMARK   81  A    between atoms: _200  and  _202
REMARK   82  A    between atoms: _202  and  _203
REMARK   83  A    between atoms: _202  and  _205
REMARK   84  A    between atoms: _205  and  _206
REMARK   85  A    between atoms: _206  and  _307
REMARK   86  A    between atoms: _207  and  _209
REMARK   87  A    between atoms: _209  and  _210
REMARK   88  A    between atoms: _209  and  _212
REMARK   89  A    between atoms: _212  and  _213
REMARK   90  A    between atoms: _213  and  _214
REMARK   91  A    between atoms: _217  and  _219
REMARK   92  A    between atoms: _219  and  _220
REMARK   93  A    between atoms: _222  and  _224
REMARK   94  A    between atoms: _224  and  _225
REMARK   95  A    between atoms: _224  and  _227
REMARK   96  A    between atoms: _227  and  _228
REMARK   97  A    between atoms: _231  and  _233
REMARK   98  A    between atoms: _233  and  _234
REMARK   99  A    between atoms: _233  and  _236
REMARK  100  A    between atoms: _236  and  _237
REMARK  101  A    between atoms: _239  and  _241
REMARK  102  A    between atoms: _241  and  _242
REMARK  103  A    between atoms: _244  and  _246
REMARK  104  A    between atoms: _246  and  _247
REMARK  105  A    between atoms: _249  and  _251
REMARK  106  A    between atoms: _251  and  _252
REMARK  107  A    between atoms: _251  and  _254
REMARK  108  A    between atoms: _257  and  _259
REMARK  109  A    between atoms: _259  and  _260
REMARK  110  A    between atoms: _259  and  _262
REMARK  111  A    between atoms: _262  and  _263
REMARK  112  A    between atoms: _265  and  _267
REMARK  113  A    between atoms: _267  and  _268
REMARK  114  A    between atoms: _267  and  _270
REMARK  115  A    between atoms: _270  and  _271
REMARK  116  A    between atoms: _281  and  _283
REMARK  117  A    between atoms: _283  and  _284
REMARK  118  A    between atoms: _286  and  _288
REMARK  119  A    between atoms: _288  and  _289
REMARK  120  A    between atoms: _288  and  _291
REMARK  121  A    between atoms: _291  and  _292
REMARK  122  A    between atoms: _292  and  _293
REMARK  123  A    between atoms: _296  and  _298
REMARK  124  A    between atoms: _298  and  _299
REMARK  125  A    between atoms: _301  and  _303
REMARK  126  A    between atoms: _303  and  _304
REMARK  127  A    between atoms: _303  and  _306
REMARK  128  A    between atoms: _306  and  _307
REMARK  129  A    between atoms: _308  and  _310
REMARK  130  A    between atoms: _310  and  _311
REMARK  131  A    between atoms: _310  and  _313
REMARK  132  A    between atoms: _313  and  _314
REMARK  133  A    between atoms: _317  and  _319
REMARK  134  A    between atoms: _319  and  _320
REMARK  135  A    between atoms: _319  and  _322
REMARK  136  A    between atoms: _322  and  _323
REMARK  137  A    between atoms: _323  and  _324
REMARK  138  A    between atoms: _324  and  _325
REMARK  139  A    between atoms: _334  and  _336
REMARK  140  A    between atoms: _336  and  _337
REMARK  141  A    between atoms: _336  and  _339
REMARK  142  A    between atoms: _339  and  _340
REMARK  143  A    between atoms: _340  and  _341
REMARK  144  A    between atoms: _341  and  _342
REMARK  145  A    between atoms: _342  and  _343
REMARK  146  A    between atoms: _347  and  _349
REMARK  147  A    between atoms: _349  and  _350
REMARK  148  A    between atoms: _349  and  _352
REMARK  149  A    between atoms: _352  and  _353
REMARK  150  A    between atoms: _358  and  _359
REMARK  151  A    between atoms: _361  and  _363
REMARK  152  A    between atoms: _363  and  _364
REMARK  153  A    between atoms: _366  and  _368
REMARK  154  A    between atoms: _368  and  _369
REMARK  155  A    between atoms: _368  and  _371
REMARK  156  A    between atoms: _371  and  _372
REMARK  157  A    between atoms: _378  and  _380
REMARK  158  A    between atoms: _380  and  _381
REMARK  159  A    between atoms: _380  and  _383
REMARK  160  A    between atoms: _383  and  _384
REMARK  161  A    between atoms: _389  and  _390
REMARK                            x       y       z     vdW  Elec       q    Type
REMARK                         _______ _______ _______ _____ _____    ______ ____
ROOT
ATOM      1  CB  ASN A   1       6.954 -14.315  16.065  0.00  0.00    +0.110 C 
ENDROOT
BRANCH   1   2
ATOM      2  CG  ASN A   1       7.981 -14.855  15.078  0.00  0.00    +0.221 C 
ATOM      3  ND2 ASN A   1       8.732 -15.849  15.437  0.00  0.00    -0.329 N 
ATOM      4 HD21 ASN A   1       8.627 -16.264  16.385  0.00  0.00    +0.145 HD
ATOM      5 HD22 ASN A   1       9.440 -16.231  14.777  0.00  0.00    +0.145 HD
ATOM      6  OD1 ASN A   1       8.130 -14.394  13.965  0.00  0.00    -0.275 OA
ENDBRANCH   1   2
BRANCH   1   7
ATOM      7  CA  ASN A   1       6.189 -13.136  15.499  0.00  0.00    +0.142 C 
BRANCH   7   8
ATOM      8  N   ASN A   1       7.105 -11.994  15.239  0.00  0.00    -0.239 NA
ATOM      9  H   ASN A   1       8.133 -12.152  15.247  0.00  0.00    +0.142 HD
ENDBRANCH   7   8
BRANCH   7  10
ATOM     10  C   ASN A   1       5.083 -12.813  16.469  0.00  0.00    +0.225 C 
ATOM     11  O   ASN A   1       5.240 -11.990  17.361  0.00  0.00    -0.287 OA
ENDBRANCH   7  10
ENDBRANCH   1   7
TORSDOF 4
REMARK  Name = ../refined-set-2016/1ghy/1ghy_pocket.pdb
REMARK  161 active torsions:
REMARK  status: ('A' for Active; 'I' for Inactive)
REMARK    1  A    between atoms: _1  and  _5
REMARK    2  A    between atoms: _5  and  _6
REMARK    3  A    between atoms: _5  and  _8
REMARK    4  A    between atoms: _8  and  _9
REMARK    5  A    between atoms: _12  and  _14
REMARK    6  A    between atoms: _14  and  _15
REMARK    7  A    between atoms: _14  and  _17
REMARK    8  A    between atoms: _20  and  _22
REMARK    9  A    between atoms: _22  and  _23
REMARK   10  A    between atoms: _22  and  _25
REMARK   11  A    between atoms: _25  and  _26
REMARK   12  A    between atoms: _29  and  _31
REMARK   13  A    between atoms: _31  and  _32
REMARK   14  A    between atoms: _31  and  _34
REMARK   15  A    between atoms: _34  and  _35
REMARK   16  A    between atoms: _35  and  _53
REMARK   17  A    between atoms: _36  and  _38
REMARK   18  A    between atoms: _38  and  _39
REMARK   19  A    between atoms: _38  and  _41
REMARK   20  A    between atoms: _41  and  _42
REMARK   21  A    between atoms: _47  and  _49
REMARK   22  A    between atoms: _49  and  _50
REMARK   23  A    between atoms: _49  and  _52
REMARK   24  A    between atoms: _52  and  _53
REMARK   25  A    between atoms: _54  and  _56
REMARK   26  A    between atoms: _56  and  _57
REMARK   27  A    between atoms: _56  and  _59
REMARK   28  A    between atoms: _59  and  _60
REMARK   29  A    between atoms: _65  and  _66
REMARK   30  A    between atoms: _69  and  _70
REMARK   31  A    between atoms: _75  and  _77
REMARK   32  A    between atoms: _77  and  _78
REMARK   33  A    between atoms: _77  and  _80
REMARK   34  A    between atoms: _80  and  _81
REMARK   35  A    between atoms: _91  and  _93
REMARK   36  A    between atoms: _93  and  _94
REMARK   37  A    between atoms: _93  and  _96
REMARK   38  A    between atoms: _96  and  _97
REMARK   39  A    between atoms: _97  and  _98
REMARK   40  A    between atoms: _98  and  _99
REMARK   41  A    between atoms: _99  and  _100
REMARK   42  A    between atoms: _104  and  _106
REMARK   43  A    between atoms: _106  and  _107
REMARK   44  A    between atoms: _106  and  _109
REMARK   45  A    between atoms: _109  and  _110
REMARK   46  A    between atoms: _115  and  _116
REMARK   47  A    between atoms: _118  and  _120
REMARK   48  A    between atoms: _120  and  _121
REMARK   49  A    between atoms: _120  and  _123
REMARK   50  A    between atoms: _123  and  _124
REMARK   51  A    between atoms: _127  and  _129
REMARK   52  A    between atoms: _129  and  _130
REMARK   53  A    between atoms: _129  and  _132
REMARK   54  A    between atoms: _132  and  _133
REMARK   55  A    between atoms: _136  and  _138
REMARK   56  A    between atoms: _138  and  _139
REMARK   57  A    between atoms: _138  and  _141
REMARK   58  A    between atoms: _144  and  _146
REMARK   59  A    between atoms: _146  and  _147
REMARK   60  A    between atoms: _146  and  _149
REMARK   61  A    between atoms: _149  and  _150
REMARK   62  A    between atoms: _155  and  _157
REMARK   63  A    between atoms: _157  and  _158
REMARK   64  A    between atoms: _157  and  _160
REMARK   65  A    between atoms: _160  and  _161
REMARK   66  A    between atoms: _161  and  _162
REMARK   67  A    between atoms: _165  and  _167
REMARK   68  A    between atoms: _167  and  _168
REMARK   69  A    between atoms: _167  and  _170
REMARK   70  A    between atoms: _170  and  _171
REMARK   71  A    between atoms: _174  and  _176
REMARK   72  A    between atoms: _176  and  _177
REMARK   73  A    between atoms: _180  and  _182
REMARK   74  A    between atoms: _182  and  _183
REMARK   75  A    between atoms: _185  and  _187
REMARK   76  A    between atoms: _187  and  _188
REMARK   77  A    between atoms: _187  and  _190
REMARK   78  A    between atoms: _190  and  _191
REMARK   79  A    between atoms: _194  and  _196
REMARK   80  A    between atoms: _196  and  _197
REMARK   81  A    between atoms: _200  and  _202
REMARK   82  A    between atoms: _202  and  _203
REMARK   83  A    between atoms: _202  and  _205
REMARK   84  A    between atoms: _205  and  _206
REMARK   85  A    between atoms: _206  and  _307
REMARK   86  A    between atoms: _207  and  _209
REMARK   87  A    between atoms: _209  and  _210
REMARK   88  A    between atoms: _209  and  _212
REMARK   89  A    between atoms: _212  and  _213
REMARK   90  A    between atoms: _213  and  _214
REMARK   91  A    between atoms: _217  and  _219
REMARK   92  A    between atoms: _219  and  _220
REMARK   93  A    between atoms: _222  and  _224
REMARK   94  A    between atoms: _224  and  _225
REMARK   95  A    between atoms: _224  and  _227
REMARK   96  A    between atoms: _227  and  _228
REMARK   97  A    between atoms: _231  and  _233
REMARK   98  A    between atoms: _233  and  _234
REMARK   99  A    between atoms: _233  and  _236
REMARK  100  A    between atoms: _236  and  _237
REMARK  101  A    between atoms: _239  and  _241
REMARK  102  A    between atoms: _241  and  _242
REMARK  103  A    between atoms: _244  and  _246
REMARK  104  A    between atoms: _246  and  _247
REMARK  105  A    between atoms: _249  and  _251
REMARK  106  A    between atoms: _251  and  _252
REMARK  107  A    between atoms: _251  and  _254
REMARK  108  A    between atoms: _257  and  _259
REMARK  109  A    between atoms: _259  and  _260
REMARK  110  A    between atoms: _259  and  _262
REMARK  111  A    between atoms: _262  and  _263
REMARK  112  A    between atoms: _265  and  _267
REMARK  113  A    between atoms: _267  and  _268
REMARK  114  A    between atoms: _267  and  _270
REMARK  115  A    between atoms: _270  and  _271
REMARK  116  A    between atoms: _281  and  _283
REMARK  117  A    between atoms: _283  and  _284
REMARK  118  A    between atoms: _286  and  _288
REMARK  119  A    between atoms: _288  and  _289
REMARK  120  A    between atoms: _288  and  _291
REMARK  121  A    between atoms: _291  and  _292
REMARK  122  A    between atoms: _292  and  _293
REMARK  123  A    between atoms: _296  and  _298
REMARK  124  A    between atoms: _298  and  _299
REMARK  125  A    between atoms: _301  and  _303
REMARK  126  A    between atoms: _303  and  _304
REMARK  127  A    between atoms: _303  and  _306
REMARK  128  A    between atoms: _306  and  _307
REMARK  129  A    between atoms: _308  and  _310
REMARK  130  A    between atoms: _310  and  _311
REMARK  131  A    between atoms: _310  and  _313
REMARK  132  A    between atoms: _313  and  _314
REMARK  133  A    between atoms: _317  and  _319
REMARK  134  A    between atoms: _319  and  _320
REMARK  135  A    between atoms: _319  and  _322
REMARK  136  A    between atoms: _322  and  _323
REMARK  137  A    between atoms: _323  and  _324
REMARK  138  A    between atoms: _324  and  _325
REMARK  139  A    between atoms: _334  and  _336
REMARK  140  A    between atoms: _336  and  _337
REMARK  141  A    between atoms: _336  and  _339
REMARK  142  A    between atoms: _339  and  _340
REMARK  143  A    between atoms: _340  and  _341
REMARK  144  A    between atoms: _341  and  _342
REMARK  145  A    between atoms: _342  and  _343
REMARK  146  A    between atoms: _347  and  _349
REMARK  147  A    between atoms: _349  and  _350
REMARK  148  A    between atoms: _349  and  _352
REMARK  149  A    between atoms: _352  and  _353
REMARK  150  A    between atoms: _358  and  _359
REMARK  151  A    between atoms: _361  and  _363
REMARK  152  A    between atoms: _363  and  _364
REMARK  153  A    between atoms: _366  and  _368
REMARK  154  A    between atoms: _368  and  _369
REMARK  155  A    between atoms: _368  and  _371
REMARK  156  A    between atoms: _371  and  _372
REMARK  157  A    between atoms: _378  and  _380
REMARK  158  A    between atoms: _380  and  _381
REMARK  159  A    between atoms: _380  and  _383
REMARK  160  A    between atoms: _383  and  _384
REMARK  161  A    between atoms: _389  and  _390
REMARK                            x       y       z     vdW  Elec       q    Type
REMARK                         _______ _______ _______ _____ _____    ______ ____
ROOT
ATOM      1  CA  GLU A   1       6.579 -18.427  19.770  0.00  0.00    +0.134 C 
ENDROOT
BRANCH   1   2
ATOM      2  N   GLU A   1       5.160 -17.982  19.681  0.00  0.00    -0.239 NA
ATOM      3  H   GLU A   1       4.459 -18.341  20.360  0.00  0.00    +0.142 HD
ENDBRANCH   1   2
BRANCH   1   4
ATOM      4  C   GLU A   1       6.890 -19.316  18.560  0.00  0.00    +0.224 C 
ATOM      5  O   GLU A   1       7.959 -19.203  17.982  0.00  0.00    -0.287 OA
ENDBRANCH   1   4
BRANCH   1   6
ATOM      6  CB  GLU A   1       6.725 -19.177  21.121  0.00  0.00    +0.037 C 
BRANCH   6   7
ATOM      7  CG  GLU A   1       8.187 -19.296  21.532  0.00  0.00    +0.116 C 
BRANCH   7   8
ATOM      8  CD  GLU A   1       8.250 -19.982  22.910  0.00  0.00    +0.365 C 
ATOM      9  OE2 GLU A   1       7.566 -19.528  23.811  0.00  0.00    -0.246 OA
ATOM     10  OE1 GLU A   1       8.995 -20.934  22.985  0.00  0.00    -0.246 OA
ENDBRANCH   7   8
ENDBRANCH   6   7
ENDBRANCH   1   6
TORSDOF 5
REMARK  Name = ../refined-set-2016/1ghy/1ghy_pocket.pdb
REMARK  161 active torsions:
REMARK  status: ('A' for Active; 'I' for Inactive)
REMARK    1  A    between atoms: _1  and  _5
REMARK    2  A    between atoms: _5  and  _6
REMARK    3  A    between atoms: _5  and  _8
REMARK    4  A    between atoms: _8  and  _9
REMARK    5  A    between atoms: _12  and  _14
REMARK    6  A    between atoms: _14  and  _15
REMARK    7  A    between atoms: _14  and  _17
REMARK    8  A    between atoms: _20  and  _22
REMARK    9  A    between atoms: _22  and  _23
REMARK   10  A    between atoms: _22  and  _25
REMARK   11  A    between atoms: _25  and  _26
REMARK   12  A    between atoms: _29  and  _31
REMARK   13  A    between atoms: _31  and  _32
REMARK   14  A    between atoms: _31  and  _34
REMARK   15  A    between atoms: _34  and  _35
REMARK   16  A    between atoms: _35  and  _53
REMARK   17  A    between atoms: _36  and  _38
REMARK   18  A    between atoms: _38  and  _39
REMARK   19  A    between atoms: _38  and  _41
REMARK   20  A    between atoms: _41  and  _42
REMARK   21  A    between atoms: _47  and  _49
REMARK   22  A    between atoms: _49  and  _50
REMARK   23  A    between atoms: _49  and  _52
REMARK   24  A    between atoms: _52  and  _53
REMARK   25  A    between atoms: _54  and  _56
REMARK   26  A    between atoms: _56  and  _57
REMARK   27  A    between atoms: _56  and  _59
REMARK   28  A    between atoms: _59  and  _60
REMARK   29  A    between atoms: _65  and  _66
REMARK   30  A    between atoms: _69  and  _70
REMARK   31  A    between atoms: _75  and  _77
REMARK   32  A    between atoms: _77  and  _78
REMARK   33  A    between atoms: _77  and  _80
REMARK   34  A    between atoms: _80  and  _81
REMARK   35  A    between atoms: _91  and  _93
REMARK   36  A    between atoms: _93  and  _94
REMARK   37  A    between atoms: _93  and  _96
REMARK   38  A    between atoms: _96  and  _97
REMARK   39  A    between atoms: _97  and  _98
REMARK   40  A    between atoms: _98  and  _99
REMARK   41  A    between atoms: _99  and  _100
REMARK   42  A    between atoms: _104  and  _106
REMARK   43  A    between atoms: _106  and  _107
REMARK   44  A    between atoms: _106  and  _109
REMARK   45  A    between atoms: _109  and  _110
REMARK   46  A    between atoms: _115  and  _116
REMARK   47  A    between atoms: _118  and  _120
REMARK   48  A    between atoms: _120  and  _121
REMARK   49  A    between atoms: _120  and  _123
REMARK   50  A    between atoms: _123  and  _124
REMARK   51  A    between atoms: _127  and  _129
REMARK   52  A    between atoms: _129  and  _130
REMARK   53  A    between atoms: _129  and  _132
REMARK   54  A    between atoms: _132  and  _133
REMARK   55  A    between atoms: _136  and  _138
REMARK   56  A    between atoms: _138  and  _139
REMARK   57  A    between atoms: _138  and  _141
REMARK   58  A    between atoms: _144  and  _146
REMARK   59  A    between atoms: _146  and  _147
REMARK   60  A    between atoms: _146  and  _149
REMARK   61  A    between atoms: _149  and  _150
REMARK   62  A    between atoms: _155  and  _157
REMARK   63  A    between atoms: _157  and  _158
REMARK   64  A    between atoms: _157  and  _160
REMARK   65  A    between atoms: _160  and  _161
REMARK   66  A    between atoms: _161  and  _162
REMARK   67  A    between atoms: _165  and  _167
REMARK   68  A    between atoms: _167  and  _168
REMARK   69  A    between atoms: _167  and  _170
REMARK   70  A    between atoms: _170  and  _171
REMARK   71  A    between atoms: _174  and  _176
REMARK   72  A    between atoms: _176  and  _177
REMARK   73  A    between atoms: _180  and  _182
REMARK   74  A    between atoms: _182  and  _183
REMARK   75  A    between atoms: _185  and  _187
REMARK   76  A    between atoms: _187  and  _188
REMARK   77  A    between atoms: _187  and  _190
REMARK   78  A    between atoms: _190  and  _191
REMARK   79  A    between atoms: _194  and  _196
REMARK   80  A    between atoms: _196  and  _197
REMARK   81  A    between atoms: _200  and  _202
REMARK   82  A    between atoms: _202  and  _203
REMARK   83  A    between atoms: _202  and  _205
REMARK   84  A    between atoms: _205  and  _206
REMARK   85  A    between atoms: _206  and  _307
REMARK   86  A    between atoms: _207  and  _209
REMARK   87  A    between atoms: _209  and  _210
REMARK   88  A    between atoms: _209  and  _212
REMARK   89  A    between atoms: _212  and  _213
REMARK   90  A    between atoms: _213  and  _214
REMARK   91  A    between atoms: _217  and  _219
REMARK   92  A    between atoms: _219  and  _220
REMARK   93  A    between atoms: _222  and  _224
REMARK   94  A    between atoms: _224  and  _225
REMARK   95  A    between atoms: _224  and  _227
REMARK   96  A    between atoms: _227  and  _228
REMARK   97  A    between atoms: _231  and  _233
REMARK   98  A    between atoms: _233  and  _234
REMARK   99  A    between atoms: _233  and  _236
REMARK  100  A    between atoms: _236  and  _237
REMARK  101  A    between atoms: _239  and  _241
REMARK  102  A    between atoms: _241  and  _242
REMARK  103  A    between atoms: _244  and  _246
REMARK  104  A    between atoms: _246  and  _247
REMARK  105  A    between atoms: _249  and  _251
REMARK  106  A    between atoms: _251  and  _252
REMARK  107  A    between atoms: _251  and  _254
REMARK  108  A    between atoms: _257  and  _259
REMARK  109  A    between atoms: _259  and  _260
REMARK  110  A    between atoms: _259  and  _262
REMARK  111  A    between atoms: _262  and  _263
REMARK  112  A    between atoms: _265  and  _267
REMARK  113  A    between atoms: _267  and  _268
REMARK  114  A    between atoms: _267  and  _270
REMARK  115  A    between atoms: _270  and  _271
REMARK  116  A    between atoms: _281  and  _283
REMARK  117  A    between atoms: _283  and  _284
REMARK  118  A    between atoms: _286  and  _288
REMARK  119  A    between atoms: _288  and  _289
REMARK  120  A    between atoms: _288  and  _291
REMARK  121  A    between atoms: _291  and  _292
REMARK  122  A    between atoms: _292  and  _293
REMARK  123  A    between atoms: _296  and  _298
REMARK  124  A    between atoms: _298  and  _299
REMARK  125  A    between atoms: _301  and  _303
REMARK  126  A    between atoms: _303  and  _304
REMARK  127  A    between atoms: _303  and  _306
REMARK  128  A    between atoms: _306  and  _307
REMARK  129  A    between atoms: _308  and  _310
REMARK  130  A    between atoms: _310  and  _311
REMARK  131  A    between atoms: _310  and  _313
REMARK  132  A    between atoms: _313  and  _314
REMARK  133  A    between atoms: _317  and  _319
REMARK  134  A    between atoms: _319  and  _320
REMARK  135  A    between atoms: _319  and  _322
REMARK  136  A    between atoms: _322  and  _323
REMARK  137  A    between atoms: _323  and  _324
REMARK  138  A    between atoms: _324  and  _325
REMARK  139  A    between atoms: _334  and  _336
REMARK  140  A    between atoms: _336  and  _337
REMARK  141  A    between atoms: _336  and  _339
REMARK  142  A    between atoms: _339  and  _340
REMARK  143  A    between atoms: _340  and  _341
REMARK  144  A    between atoms: _341  and  _342
REMARK  145  A    between atoms: _342  and  _343
REMARK  146  A    between atoms: _347  and  _349
REMARK  147  A    between atoms: _349  and  _350
REMARK  148  A    between atoms: _349  and  _352
REMARK  149  A    between atoms: _352  and  _353
REMARK  150  A    between atoms: _358  and  _359
REMARK  151  A    between atoms: _361  and  _363
REMARK  152  A    between atoms: _363  and  _364
REMARK  153  A    between atoms: _366  and  _368
REMARK  154  A    between atoms: _368  and  _369
REMARK  155  A    between atoms: _368  and  _371
REMARK  156  A    between atoms: _371  and  _372
REMARK  157  A    between atoms: _378  and  _380
REMARK  158  A    between atoms: _380  and  _381
REMARK  159  A    between atoms: _380  and  _383
REMARK  160  A    between atoms: _383  and  _384
REMARK  161  A    between atoms: _389  and  _390
REMARK                            x       y       z     vdW  Elec       q    Type
REMARK                         _______ _______ _______ _____ _____    ______ ____
ROOT
ATOM      1  CA  LEU A   1       3.844  -4.073  29.650  0.00  0.00    +0.133 C 
ENDROOT
BRANCH   1   2
ATOM      2  N   LEU A   1       3.364  -3.163  28.579  0.00  0.00    -0.239 NA
ATOM      3  H   LEU A   1       4.015  -2.445  28.201  0.00  0.00    +0.142 HD
ENDBRANCH   1   2
BRANCH   1   4
ATOM      4  C   LEU A   1       4.453  -3.285  30.817  0.00  0.00    +0.224 C 
ATOM      5  O   LEU A   1       5.111  -2.287  30.580  0.00  0.00    -0.287 OA
ENDBRANCH   1   4
BRANCH   1   6
ATOM      6  CB  LEU A   1       4.926  -4.969  29.079  0.00  0.00    +0.025 C 
BRANCH   6   7
ATOM      7  CG  LEU A   1       4.479  -5.774  27.869  0.00  0.00    +0.002 C 
ATOM      8  CD2 LEU A   1       3.549  -6.882  28.263  0.00  0.00    +0.000 C 
ATOM      9  CD1 LEU A   1       5.706  -6.415  27.282  0.00  0.00    +0.000 C 
ENDBRANCH   6   7
ENDBRANCH   1   6
TORSDOF 4
REMARK  Name = ../refined-set-2016/1ghy/1ghy_pocket.pdb
REMARK  161 active torsions:
REMARK  status: ('A' for Active; 'I' for Inactive)
REMARK    1  A    between atoms: _1  and  _5
REMARK    2  A    between atoms: _5  and  _6
REMARK    3  A    between atoms: _5  and  _8
REMARK    4  A    between atoms: _8  and  _9
REMARK    5  A    between atoms: _12  and  _14
REMARK    6  A    between atoms: _14  and  _15
REMARK    7  A    between atoms: _14  and  _17
REMARK    8  A    between atoms: _20  and  _22
REMARK    9  A    between atoms: _22  and  _23
REMARK   10  A    between atoms: _22  and  _25
REMARK   11  A    between atoms: _25  and  _26
REMARK   12  A    between atoms: _29  and  _31
REMARK   13  A    between atoms: _31  and  _32
REMARK   14  A    between atoms: _31  and  _34
REMARK   15  A    between atoms: _34  and  _35
REMARK   16  A    between atoms: _35  and  _53
REMARK   17  A    between atoms: _36  and  _38
REMARK   18  A    between atoms: _38  and  _39
REMARK   19  A    between atoms: _38  and  _41
REMARK   20  A    between atoms: _41  and  _42
REMARK   21  A    between atoms: _47  and  _49
REMARK   22  A    between atoms: _49  and  _50
REMARK   23  A    between atoms: _49  and  _52
REMARK   24  A    between atoms: _52  and  _53
REMARK   25  A    between atoms: _54  and  _56
REMARK   26  A    between atoms: _56  and  _57
REMARK   27  A    between atoms: _56  and  _59
REMARK   28  A    between atoms: _59  and  _60
REMARK   29  A    between atoms: _65  and  _66
REMARK   30  A    between atoms: _69  and  _70
REMARK   31  A    between atoms: _75  and  _77
REMARK   32  A    between atoms: _77  and  _78
REMARK   33  A    between atoms: _77  and  _80
REMARK   34  A    between atoms: _80  and  _81
REMARK   35  A    between atoms: _91  and  _93
REMARK   36  A    between atoms: _93  and  _94
REMARK   37  A    between atoms: _93  and  _96
REMARK   38  A    between atoms: _96  and  _97
REMARK   39  A    between atoms: _97  and  _98
REMARK   40  A    between atoms: _98  and  _99
REMARK   41  A    between atoms: _99  and  _100
REMARK   42  A    between atoms: _104  and  _106
REMARK   43  A    between atoms: _106  and  _107
REMARK   44  A    between atoms: _106  and  _109
REMARK   45  A    between atoms: _109  and  _110
REMARK   46  A    between atoms: _115  and  _116
REMARK   47  A    between atoms: _118  and  _120
REMARK   48  A    between atoms: _120  and  _121
REMARK   49  A    between atoms: _120  and  _123
REMARK   50  A    between atoms: _123  and  _124
REMARK   51  A    between atoms: _127  and  _129
REMARK   52  A    between atoms: _129  and  _130
REMARK   53  A    between atoms: _129  and  _132
REMARK   54  A    between atoms: _132  and  _133
REMARK   55  A    between atoms: _136  and  _138
REMARK   56  A    between atoms: _138  and  _139
REMARK   57  A    between atoms: _138  and  _141
REMARK   58  A    between atoms: _144  and  _146
REMARK   59  A    between atoms: _146  and  _147
REMARK   60  A    between atoms: _146  and  _149
REMARK   61  A    between atoms: _149  and  _150
REMARK   62  A    between atoms: _155  and  _157
REMARK   63  A    between atoms: _157  and  _158
REMARK   64  A    between atoms: _157  and  _160
REMARK   65  A    between atoms: _160  and  _161
REMARK   66  A    between atoms: _161  and  _162
REMARK   67  A    between atoms: _165  and  _167
REMARK   68  A    between atoms: _167  and  _168
REMARK   69  A    between atoms: _167  and  _170
REMARK   70  A    between atoms: _170  and  _171
REMARK   71  A    between atoms: _174  and  _176
REMARK   72  A    between atoms: _176  and  _177
REMARK   73  A    between atoms: _180  and  _182
REMARK   74  A    between atoms: _182  and  _183
REMARK   75  A    between atoms: _185  and  _187
REMARK   76  A    between atoms: _187  and  _188
REMARK   77  A    between atoms: _187  and  _190
REMARK   78  A    between atoms: _190  and  _191
REMARK   79  A    between atoms: _194  and  _196
REMARK   80  A    between atoms: _196  and  _197
REMARK   81  A    between atoms: _200  and  _202
REMARK   82  A    between atoms: _202  and  _203
REMARK   83  A    between atoms: _202  and  _205
REMARK   84  A    between atoms: _205  and  _206
REMARK   85  A    between atoms: _206  and  _307
REMARK   86  A    between atoms: _207  and  _209
REMARK   87  A    between atoms: _209  and  _210
REMARK   88  A    between atoms: _209  and  _212
REMARK   89  A    between atoms: _212  and  _213
REMARK   90  A    between atoms: _213  and  _214
REMARK   91  A    between atoms: _217  and  _219
REMARK   92  A    between atoms: _219  and  _220
REMARK   93  A    between atoms: _222  and  _224
REMARK   94  A    between atoms: _224  and  _225
REMARK   95  A    between atoms: _224  and  _227
REMARK   96  A    between atoms: _227  and  _228
REMARK   97  A    between atoms: _231  and  _233
REMARK   98  A    between atoms: _233  and  _234
REMARK   99  A    between atoms: _233  and  _236
REMARK  100  A    between atoms: _236  and  _237
REMARK  101  A    between atoms: _239  and  _241
REMARK  102  A    between atoms: _241  and  _242
REMARK  103  A    between atoms: _244  and  _246
REMARK  104  A    between atoms: _246  and  _247
REMARK  105  A    between atoms: _249  and  _251
REMARK  106  A    between atoms: _251  and  _252
REMARK  107  A    between atoms: _251  and  _254
REMARK  108  A    between atoms: _257  and  _259
REMARK  109  A    between atoms: _259  and  _260
REMARK  110  A    between atoms: _259  and  _262
REMARK  111  A    between atoms: _262  and  _263
REMARK  112  A    between atoms: _265  and  _267
REMARK  113  A    between atoms: _267  and  _268
REMARK  114  A    between atoms: _267  and  _270
REMARK  115  A    between atoms: _270  and  _271
REMARK  116  A    between atoms: _281  and  _283
REMARK  117  A    between atoms: _283  and  _284
REMARK  118  A    between atoms: _286  and  _288
REMARK  119  A    between atoms: _288  and  _289
REMARK  120  A    between atoms: _288  and  _291
REMARK  121  A    between atoms: _291  and  _292
REMARK  122  A    between atoms: _292  and  _293
REMARK  123  A    between atoms: _296  and  _298
REMARK  124  A    between atoms: _298  and  _299
REMARK  125  A    between atoms: _301  and  _303
REMARK  126  A    between atoms: _303  and  _304
REMARK  127  A    between atoms: _303  and  _306
REMARK  128  A    between atoms: _306  and  _307
REMARK  129  A    between atoms: _308  and  _310
REMARK  130  A    between atoms: _310  and  _311
REMARK  131  A    between atoms: _310  and  _313
REMARK  132  A    between atoms: _313  and  _314
REMARK  133  A    between atoms: _317  and  _319
REMARK  134  A    between atoms: _319  and  _320
REMARK  135  A    between atoms: _319  and  _322
REMARK  136  A    between atoms: _322  and  _323
REMARK  137  A    between atoms: _323  and  _324
REMARK  138  A    between atoms: _324  and  _325
REMARK  139  A    between atoms: _334  and  _336
REMARK  140  A    between atoms: _336  and  _337
REMARK  141  A    between atoms: _336  and  _339
REMARK  142  A    between atoms: _339  and  _340
REMARK  143  A    between atoms: _340  and  _341
REMARK  144  A    between atoms: _341  and  _342
REMARK  145  A    between atoms: _342  and  _343
REMARK  146  A    between atoms: _347  and  _349
REMARK  147  A    between atoms: _349  and  _350
REMARK  148  A    between atoms: _349  and  _352
REMARK  149  A    between atoms: _352  and  _353
REMARK  150  A    between atoms: _358  and  _359
REMARK  151  A    between atoms: _361  and  _363
REMARK  152  A    between atoms: _363  and  _364
REMARK  153  A    between atoms: _366  and  _368
REMARK  154  A    between atoms: _368  and  _369
REMARK  155  A    between atoms: _368  and  _371
REMARK  156  A    between atoms: _371  and  _372
REMARK  157  A    between atoms: _378  and  _380
REMARK  158  A    between atoms: _380  and  _381
REMARK  159  A    between atoms: _380  and  _383
REMARK  160  A    between atoms: _383  and  _384
REMARK  161  A    between atoms: _389  and  _390
REMARK                            x       y       z     vdW  Elec       q    Type
REMARK                         _______ _______ _______ _____ _____    ______ ____
ROOT
ATOM      1  CA  ALA A   1       9.244  -6.172  31.677  0.00  0.00    +0.133 C 
ATOM      2  CB  ALA A   1       9.092  -5.014  30.675  0.00  0.00    +0.027 C 
ENDROOT
BRANCH   1   3
ATOM      3  N   ALA A   1      10.651  -6.627  31.642  0.00  0.00    -0.239 NA
ATOM      4  H   ALA A   1      10.941  -7.386  30.993  0.00  0.00    +0.142 HD
ENDBRANCH   1   3
BRANCH   1   5
ATOM      5  C   ALA A   1       8.322  -7.299  31.321  0.00  0.00    +0.224 C 
ATOM      6  O   ALA A   1       8.719  -8.243  30.667  0.00  0.00    -0.287 OA
ENDBRANCH   1   5
TORSDOF 2
REMARK  Name = ../refined-set-2016/1ghy/1ghy_pocket.pdb
REMARK  161 active torsions:
REMARK  status: ('A' for Active; 'I' for Inactive)
REMARK    1  A    between atoms: _1  and  _5
REMARK    2  A    between atoms: _5  and  _6
REMARK    3  A    between atoms: _5  and  _8
REMARK    4  A    between atoms: _8  and  _9
REMARK    5  A    between atoms: _12  and  _14
REMARK    6  A    between atoms: _14  and  _15
REMARK    7  A    between atoms: _14  and  _17
REMARK    8  A    between atoms: _20  and  _22
REMARK    9  A    between atoms: _22  and  _23
REMARK   10  A    between atoms: _22  and  _25
REMARK   11  A    between atoms: _25  and  _26
REMARK   12  A    between atoms: _29  and  _31
REMARK   13  A    between atoms: _31  and  _32
REMARK   14  A    between atoms: _31  and  _34
REMARK   15  A    between atoms: _34  and  _35
REMARK   16  A    between atoms: _35  and  _53
REMARK   17  A    between atoms: _36  and  _38
REMARK   18  A    between atoms: _38  and  _39
REMARK   19  A    between atoms: _38  and  _41
REMARK   20  A    between atoms: _41  and  _42
REMARK   21  A    between atoms: _47  and  _49
REMARK   22  A    between atoms: _49  and  _50
REMARK   23  A    between atoms: _49  and  _52
REMARK   24  A    between atoms: _52  and  _53
REMARK   25  A    between atoms: _54  and  _56
REMARK   26  A    between atoms: _56  and  _57
REMARK   27  A    between atoms: _56  and  _59
REMARK   28  A    between atoms: _59  and  _60
REMARK   29  A    between atoms: _65  and  _66
REMARK   30  A    between atoms: _69  and  _70
REMARK   31  A    between atoms: _75  and  _77
REMARK   32  A    between atoms: _77  and  _78
REMARK   33  A    between atoms: _77  and  _80
REMARK   34  A    between atoms: _80  and  _81
REMARK   35  A    between atoms: _91  and  _93
REMARK   36  A    between atoms: _93  and  _94
REMARK   37  A    between atoms: _93  and  _96
REMARK   38  A    between atoms: _96  and  _97
REMARK   39  A    between atoms: _97  and  _98
REMARK   40  A    between atoms: _98  and  _99
REMARK   41  A    between atoms: _99  and  _100
REMARK   42  A    between atoms: _104  and  _106
REMARK   43  A    between atoms: _106  and  _107
REMARK   44  A    between atoms: _106  and  _109
REMARK   45  A    between atoms: _109  and  _110
REMARK   46  A    between atoms: _115  and  _116
REMARK   47  A    between atoms: _118  and  _120
REMARK   48  A    between atoms: _120  and  _121
REMARK   49  A    between atoms: _120  and  _123
REMARK   50  A    between atoms: _123  and  _124
REMARK   51  A    between atoms: _127  and  _129
REMARK   52  A    between atoms: _129  and  _130
REMARK   53  A    between atoms: _129  and  _132
REMARK   54  A    between atoms: _132  and  _133
REMARK   55  A    between atoms: _136  and  _138
REMARK   56  A    between atoms: _138  and  _139
REMARK   57  A    between atoms: _138  and  _141
REMARK   58  A    between atoms: _144  and  _146
REMARK   59  A    between atoms: _146  and  _147
REMARK   60  A    between atoms: _146  and  _149
REMARK   61  A    between atoms: _149  and  _150
REMARK   62  A    between atoms: _155  and  _157
REMARK   63  A    between atoms: _157  and  _158
REMARK   64  A    between atoms: _157  and  _160
REMARK   65  A    between atoms: _160  and  _161
REMARK   66  A    between atoms: _161  and  _162
REMARK   67  A    between atoms: _165  and  _167
REMARK   68  A    between atoms: _167  and  _168
REMARK   69  A    between atoms: _167  and  _170
REMARK   70  A    between atoms: _170  and  _171
REMARK   71  A    between atoms: _174  and  _176
REMARK   72  A    between atoms: _176  and  _177
REMARK   73  A    between atoms: _180  and  _182
REMARK   74  A    between atoms: _182  and  _183
REMARK   75  A    between atoms: _185  and  _187
REMARK   76  A    between atoms: _187  and  _188
REMARK   77  A    between atoms: _187  and  _190
REMARK   78  A    between atoms: _190  and  _191
REMARK   79  A    between atoms: _194  and  _196
REMARK   80  A    between atoms: _196  and  _197
REMARK   81  A    between atoms: _200  and  _202
REMARK   82  A    between atoms: _202  and  _203
REMARK   83  A    between atoms: _202  and  _205
REMARK   84  A    between atoms: _205  and  _206
REMARK   85  A    between atoms: _206  and  _307
REMARK   86  A    between atoms: _207  and  _209
REMARK   87  A    between atoms: _209  and  _210
REMARK   88  A    between atoms: _209  and  _212
REMARK   89  A    between atoms: _212  and  _213
REMARK   90  A    between atoms: _213  and  _214
REMARK   91  A    between atoms: _217  and  _219
REMARK   92  A    between atoms: _219  and  _220
REMARK   93  A    between atoms: _222  and  _224
REMARK   94  A    between atoms: _224  and  _225
REMARK   95  A    between atoms: _224  and  _227
REMARK   96  A    between atoms: _227  and  _228
REMARK   97  A    between atoms: _231  and  _233
REMARK   98  A    between atoms: _233  and  _234
REMARK   99  A    between atoms: _233  and  _236
REMARK  100  A    between atoms: _236  and  _237
REMARK  101  A    between atoms: _239  and  _241
REMARK  102  A    between atoms: _241  and  _242
REMARK  103  A    between atoms: _244  and  _246
REMARK  104  A    between atoms: _246  and  _247
REMARK  105  A    between atoms: _249  and  _251
REMARK  106  A    between atoms: _251  and  _252
REMARK  107  A    between atoms: _251  and  _254
REMARK  108  A    between atoms: _257  and  _259
REMARK  109  A    between atoms: _259  and  _260
REMARK  110  A    between atoms: _259  and  _262
REMARK  111  A    between atoms: _262  and  _263
REMARK  112  A    between atoms: _265  and  _267
REMARK  113  A    between atoms: _267  and  _268
REMARK  114  A    between atoms: _267  and  _270
REMARK  115  A    between atoms: _270  and  _271
REMARK  116  A    between atoms: _281  and  _283
REMARK  117  A    between atoms: _283  and  _284
REMARK  118  A    between atoms: _286  and  _288
REMARK  119  A    between atoms: _288  and  _289
REMARK  120  A    between atoms: _288  and  _291
REMARK  121  A    between atoms: _291  and  _292
REMARK  122  A    between atoms: _292  and  _293
REMARK  123  A    between atoms: _296  and  _298
REMARK  124  A    between atoms: _298  and  _299
REMARK  125  A    between atoms: _301  and  _303
REMARK  126  A    between atoms: _303  and  _304
REMARK  127  A    between atoms: _303  and  _306
REMARK  128  A    between atoms: _306  and  _307
REMARK  129  A    between atoms: _308  and  _310
REMARK  130  A    between atoms: _310  and  _311
REMARK  131  A    between atoms: _310  and  _313
REMARK  132  A    between atoms: _313  and  _314
REMARK  133  A    between atoms: _317  and  _319
REMARK  134  A    between atoms: _319  and  _320
REMARK  135  A    between atoms: _319  and  _322
REMARK  136  A    between atoms: _322  and  _323
REMARK  137  A    between atoms: _323  and  _324
REMARK  138  A    between atoms: _324  and  _325
REMARK  139  A    between atoms: _334  and  _336
REMARK  140  A    between atoms: _336  and  _337
REMARK  141  A    between atoms: _336  and  _339
REMARK  142  A    between atoms: _339  and  _340
REMARK  143  A    between atoms: _340  and  _341
REMARK  144  A    between atoms: _341  and  _342
REMARK  145  A    between atoms: _342  and  _343
REMARK  146  A    between atoms: _347  and  _349
REMARK  147  A    between atoms: _349  and  _350
REMARK  148  A    between atoms: _349  and  _352
REMARK  149  A    between atoms: _352  and  _353
REMARK  150  A    between atoms: _358  and  _359
REMARK  151  A    between atoms: _361  and  _363
REMARK  152  A    between atoms: _363  and  _364
REMARK  153  A    between atoms: _366  and  _368
REMARK  154  A    between atoms: _368  and  _369
REMARK  155  A    between atoms: _368  and  _371
REMARK  156  A    between atoms: _371  and  _372
REMARK  157  A    between atoms: _378  and  _380
REMARK  158  A    between atoms: _380  and  _381
REMARK  159  A    between atoms: _380  and  _383
REMARK  160  A    between atoms: _383  and  _384
REMARK  161  A    between atoms: _389  and  _390
REMARK                            x       y       z     vdW  Elec       q    Type
REMARK                         _______ _______ _______ _____ _____    ______ ____
ROOT
ATOM      1  CA  ASP A   7       7.924 -15.557  23.733  0.00  0.00    +0.160 C 
ENDROOT
BRANCH   1   2
ATOM      2  C   ASP A   7       6.692 -15.812  24.547  0.00  0.00    +0.242 C 
ATOM      3  N   SER A   8       6.488 -14.887  25.442  0.00  0.00    -0.297 N 
ATOM      4  H   SER A   8       7.184 -14.116  25.505  0.00  0.00    +0.150 HD
ATOM      5  O   ASP A   7       6.014 -16.803  24.353  0.00  0.00    -0.273 OA
BRANCH   3   6
ATOM      6  CA  SER A   8       5.344 -14.851  26.373  0.00  0.00    +0.160 C 
BRANCH   6   7
ATOM      7  C   SER A   8       5.194 -16.115  27.235  0.00  0.00    +0.241 C 
ATOM      8  N   GLY A   9       6.288 -16.691  27.656  0.00  0.00    -0.298 N 
ATOM      9  H   GLY A   9       7.223 -16.304  27.417  0.00  0.00    +0.150 HD
ATOM     10  O   SER A   8       4.084 -16.512  27.524  0.00  0.00    -0.273 OA
BRANCH   8  11
ATOM     11  CA  GLY A   9       6.156 -17.926  28.494  0.00  0.00    +0.137 C 
BRANCH  11  12
ATOM     12  C   GLY A   9       5.800 -17.482  29.916  0.00  0.00    +0.227 C 
ATOM     13  O   GLY A   9       6.170 -16.396  30.329  0.00  0.00    -0.286 OA
ENDBRANCH  11  12
BRANCH  11  14
ATOM     14  CB  GLY A   9       7.488 -18.691  28.527  0.00  0.00    +0.031 C 
BRANCH  14  15
ATOM     15  CG  GLY A   9       7.952 -19.122  27.113  0.00  0.00    +0.045 C 
BRANCH  15  16
ATOM     16  CD  GLY A   9       8.232 -20.646  27.096  0.00  0.00    +0.174 C 
BRANCH  16  17
ATOM     17  NE  GLY A   9       9.146 -20.913  25.956  0.00  0.00    -0.265 N 
ATOM     18  CZ  GLY A   9      10.403 -21.188  26.168  0.00  0.00    +0.342 C 
ATOM     19  NH2 GLY A   9      10.945 -20.890  27.321  0.00  0.00    -0.292 N 
ATOM     20 HH21 GLY A   9      10.374 -20.436  28.062  0.00  0.00    +0.255 HD
ATOM     21 HH22 GLY A   9      11.947 -21.107  27.496  0.00  0.00    +0.255 HD
ATOM     22  NH1 GLY A   9      11.083 -21.747  25.209  0.00  0.00    -0.292 N 
ATOM     23 HH11 GLY A   9      12.087 -21.978  25.350  0.00  0.00    +0.255 HD
ATOM     24 HH12 GLY A   9      10.622 -21.963  24.302  0.00  0.00    +0.255 HD
ATOM     25  HE  GLY A   9       8.781 -20.880  24.983  0.00  0.00    +0.259 HD
ENDBRANCH  16  17
ENDBRANCH  15  16
ENDBRANCH  14  15
ENDBRANCH  11  14
ENDBRANCH   8  11
ENDBRANCH   6   7
BRANCH   6  26
ATOM     26  CB  SER A   8       4.103 -14.582  25.483  0.00  0.00    +0.143 C 
BRANCH  26  27
ATOM     27  CG  SER A   8       2.874 -14.115  26.250  0.00  0.00    +0.367 C 
ATOM     28  OD2 SER A   8       3.054 -13.247  27.081  0.00  0.00    -0.246 OA
ATOM     29  OD1 SER A   8       1.803 -14.628  25.971  0.00  0.00    -0.246 OA
ENDBRANCH  26  27
ENDBRANCH   6  26
ENDBRANCH   3   6
ENDBRANCH   1   2
BRANCH   1  30
ATOM     30  N   ASP A   7       8.811 -16.719  23.857  0.00  0.00    -0.296 N 
ATOM     31  C   GLY A   6      10.058 -16.549  24.165  0.00  0.00    +0.243 C 
ATOM     32  O   GLY A   6      10.555 -15.448  24.374  0.00  0.00    -0.273 OA
ATOM     33  H   ASP A   7       8.440 -17.677  23.698  0.00  0.00    +0.150 HD
BRANCH  31  34
ATOM     34  CA  GLY A   6      10.877 -17.820  24.267  0.00  0.00    +0.176 C 
BRANCH  34  35
ATOM     35  N   GLY A   6      12.157 -17.451  24.882  0.00  0.00    -0.295 N 
ATOM     36  C   GLU A   5      12.236 -17.312  26.158  0.00  0.00    +0.241 C 
ATOM     37  O   GLU A   5      11.288 -17.435  26.904  0.00  0.00    -0.273 OA
ATOM     38  H   GLY A   6      12.998 -17.302  24.288  0.00  0.00    +0.150 HD
BRANCH  36  39
ATOM     39  CA  GLU A   5      13.599 -16.934  26.640  0.00  0.00    +0.149 C 
BRANCH  39  40
ATOM     40  N   GLU A   5      13.495 -15.466  26.886  0.00  0.00    -0.297 N 
ATOM     41  H   GLU A   5      13.049 -15.117  27.759  0.00  0.00    +0.150 HD
ATOM     42  C   GLY A   4      13.957 -14.626  26.018  0.00  0.00    +0.243 C 
ATOM     43  O   GLY A   4      14.479 -14.981  24.982  0.00  0.00    -0.273 OA
BRANCH  42  44
ATOM     44  CA  GLY A   4      13.841 -13.135  26.299  0.00  0.00    +0.176 C 
BRANCH  44  45
ATOM     45  N   GLY A   4      14.863 -12.574  25.398  0.00  0.00    -0.295 N 
ATOM     46  C   TRP A   3      15.126 -11.309  25.328  0.00  0.00    +0.241 C 
ATOM     47  O   TRP A   3      14.532 -10.484  25.983  0.00  0.00    -0.273 OA
ATOM     48  H   GLY A   4      15.398 -13.226  24.789  0.00  0.00    +0.150 HD
BRANCH  46  49
ATOM     49  CA  TRP A   3      16.206 -10.930  24.362  0.00  0.00    +0.153 C 
BRANCH  49  50
ATOM     50  N   TRP A   3      16.526  -9.481  24.428  0.00  0.00    -0.297 N 
ATOM     51  H   TRP A   3      16.836  -9.059  25.327  0.00  0.00    +0.150 HD
ATOM     52  C   SER A   2      16.420  -8.738  23.367  0.00  0.00    +0.243 C 
ATOM     53  O   SER A   2      16.021  -9.177  22.312  0.00  0.00    -0.273 OA
BRANCH  52  54
ATOM     54  CA  SER A   2      16.771  -7.254  23.416  0.00  0.00    +0.178 C 
BRANCH  54  55
ATOM     55  N   SER A   2      15.536  -6.467  23.531  0.00  0.00    -0.295 N 
ATOM     56  H   SER A   2      14.948  -6.550  24.385  0.00  0.00    +0.150 HD
ATOM     57  C   VAL A   1      15.173  -5.665  22.570  0.00  0.00    +0.238 C 
ATOM     58  O   VAL A   1      15.811  -5.524  21.531  0.00  0.00    -0.274 OA
BRANCH  57  59
ATOM     59  CA  VAL A   1      13.865  -4.887  22.818  0.00  0.00    +0.145 C 
BRANCH  59  60
ATOM     60  CB  VAL A   1      12.787  -5.264  21.771  0.00  0.00    +0.025 C 
ATOM     61  CG2 VAL A   1      11.552  -4.349  21.911  0.00  0.00    +0.002 C 
ATOM     62  CG1 VAL A   1      12.395  -6.770  21.894  0.00  0.00    +0.002 C 
ENDBRANCH  59  60
BRANCH  59  63
ATOM     63  N   VAL A   1      14.215  -3.445  22.650  0.00  0.00    -0.238 NA
ATOM     64  H   VAL A   1      13.751  -2.890  21.903  0.00  0.00    +0.142 HD
ENDBRANCH  59  63
ENDBRANCH  57  59
ENDBRANCH  54  55
BRANCH  54  65
ATOM     65  CB  SER A   2      17.644  -6.856  24.621  0.00  0.00    +0.166 C 
BRANCH  65  66
ATOM     66  OG  SER A   2      18.881  -7.544  24.513  0.00  0.00    -0.380 OA
ATOM     67  H   SER A   2      19.327  -7.287  23.667  0.00  0.00    +0.211 HD
ENDBRANCH  65  66
ENDBRANCH  54  65
ENDBRANCH  52  54
ENDBRANCH  49  50
BRANCH  49  68
ATOM     68  CB  TRP A   3      17.542 -11.744  24.653  0.00  0.00    +0.057 C 
BRANCH  68  69
ATOM     69  CG  TRP A   3      18.163 -11.366  26.033  0.00  0.00    -0.002 A 
ATOM     70  CD2 TRP A   3      17.912 -11.948  27.270  0.00  0.00    +0.013 A 
ATOM     71  CE2 TRP A   3      18.697 -11.233  28.193  0.00  0.00    +0.056 A 
ATOM     72  CZ2 TRP A   3      18.664 -11.572  29.545  0.00  0.00    +0.017 A 
ATOM     73  CH2 TRP A   3      17.853 -12.616  29.986  0.00  0.00    +0.001 A 
ATOM     74  CZ3 TRP A   3      17.073 -13.330  29.086  0.00  0.00    +0.000 A 
ATOM     75  NE1 TRP A   3      19.350 -10.311  27.524  0.00  0.00    -0.352 N 
ATOM     76  HE1 TRP A   3      20.011  -9.634  27.956  0.00  0.00    +0.166 HD
ATOM     77  CE3 TRP A   3      17.106 -12.995  27.733  0.00  0.00    +0.001 A 
ATOM     78  CD1 TRP A   3      19.066 -10.350  26.243  0.00  0.00    +0.068 A 
ENDBRANCH  68  69
ENDBRANCH  49  68
ENDBRANCH  46  49
ENDBRANCH  44  45
ENDBRANCH  42  44
ENDBRANCH  39  40
BRANCH  39  79
ATOM     79  CB  GLU A   5      13.984 -17.615  27.970  0.00  0.00    +0.041 C 
BRANCH  79  80
ATOM     80  CG  GLU A   5      15.447 -17.103  28.348  0.00  0.00    +0.116 C 
BRANCH  80  81
ATOM     81  CD  GLU A   5      15.844 -17.399  29.822  0.00  0.00    +0.365 C 
ATOM     82  OE2 GLU A   5      15.136 -16.930  30.696  0.00  0.00    -0.246 OA
ATOM     83  OE1 GLU A   5      16.843 -18.074  29.988  0.00  0.00    -0.246 OA
ENDBRANCH  80  81
ENDBRANCH  79  80
ENDBRANCH  39  79
ENDBRANCH  36  39
ENDBRANCH  34  35
ENDBRANCH  31  34
ENDBRANCH   1  30
BRANCH   1  84
ATOM     84  CB  ASP A   7       7.541 -15.334  22.260  0.00  0.00    +0.098 C 
BRANCH  84  85
ATOM     85  SG  ASP A   7       8.972 -15.122  21.183  0.00  0.00    -0.080 S 
BRANCH  85  86
ATOM     86  SG  GLY A   4       8.166 -14.523  19.435  0.00  0.00    -0.080 S 
BRANCH  86  87
ATOM     87  CB  GLY A   4       7.963 -12.740  19.671  0.00  0.00    +0.098 C 
BRANCH  87  88
ATOM     88  CA  GLY A   4       9.206 -11.956  20.182  0.00  0.00    +0.160 C 
BRANCH  88  89
ATOM     89  C   GLY A   4      10.230 -11.727  19.087  0.00  0.00    +0.242 C 
ATOM     90  O   GLY A   4      10.566 -10.585  18.799  0.00  0.00    -0.273 OA
ATOM     91  N   GLU A   5      10.676 -12.805  18.511  0.00  0.00    -0.297 N 
ATOM     92  H   GLU A   5      10.322 -13.735  18.812  0.00  0.00    +0.150 HD
BRANCH  91  93
ATOM     93  CA  GLU A   5      11.695 -12.716  17.417  0.00  0.00    +0.149 C 
BRANCH  93  94
ATOM     94  C   GLU A   5      11.141 -11.776  16.323  0.00  0.00    +0.241 C 
ATOM     95  O   GLU A   5       9.964 -11.853  15.991  0.00  0.00    -0.273 OA
ATOM     96  N   GLY A   6      11.988 -10.928  15.810  0.00  0.00    -0.295 N 
ATOM     97  H   GLY A   6      12.972 -10.913  16.147  0.00  0.00    +0.150 HD
BRANCH  96  98
ATOM     98  CA  GLY A   6      11.556  -9.979  14.743  0.00  0.00    +0.176 C 
BRANCH  98  99
ATOM     99  C   GLY A   6      11.282  -8.613  15.367  0.00  0.00    +0.243 C 
ATOM    100  N   ASP A   7      11.075  -8.605  16.671  0.00  0.00    -0.296 N 
ATOM    101  H   ASP A   7      11.111  -9.498  17.204  0.00  0.00    +0.150 HD
ATOM    102  O   GLY A   6      11.262  -7.612  14.671  0.00  0.00    -0.273 OA
BRANCH 100 103
ATOM    103  CA  ASP A   7      10.792  -7.337  17.383  0.00  0.00    +0.160 C 
BRANCH 103 104
ATOM    104  C   ASP A   7      12.043  -6.731  17.986  0.00  0.00    +0.241 C 
ATOM    105  O   ASP A   7      11.984  -5.567  18.351  0.00  0.00    -0.273 OA
ATOM    106  N   SER A   8      13.115  -7.483  18.084  0.00  0.00    -0.295 N 
ATOM    107  H   SER A   8      13.089  -8.468  17.751  0.00  0.00    +0.150 HD
BRANCH 106 108
ATOM    108  CA  SER A   8      14.378  -6.927  18.675  0.00  0.00    +0.178 C 
BRANCH 108 109
ATOM    109  C   SER A   8      14.730  -5.637  18.001  0.00  0.00    +0.243 C 
ATOM    110  N   GLY A   9      15.474  -4.815  18.670  0.00  0.00    -0.295 N 
ATOM    111  H   GLY A   9      15.789  -5.062  19.630  0.00  0.00    +0.150 HD
ATOM    112  O   SER A   8      14.303  -5.421  16.895  0.00  0.00    -0.273 OA
BRANCH 110 113
ATOM    113  CA  GLY A   9      15.875  -3.527  18.069  0.00  0.00    +0.176 C 
BRANCH 113 114
ATOM    114  C   GLY A   9      14.821  -2.479  18.213  0.00  0.00    +0.243 C 
ATOM    115  N   GLY A  10      13.604  -2.877  18.385  0.00  0.00    -0.296 N 
ATOM    116  H   GLY A  10      13.370  -3.889  18.428  0.00  0.00    +0.150 HD
ATOM    117  O   GLY A   9      15.129  -1.305  18.166  0.00  0.00    -0.273 OA
BRANCH 115 118
ATOM    118  CA  GLY A  10      12.551  -1.838  18.519  0.00  0.00    +0.163 C 
BRANCH 118 119
ATOM    119  C   GLY A  10      12.486  -1.142  19.887  0.00  0.00    +0.229 C 
ATOM    120  O   GLY A  10      13.196  -1.477  20.816  0.00  0.00    -0.286 OA
ENDBRANCH 118 119
ENDBRANCH 115 118
ENDBRANCH 113 114
ENDBRANCH 110 113
ENDBRANCH 108 109
BRANCH 108 121
ATOM    121  CB  SER A   8      15.559  -7.870  18.478  0.00  0.00    +0.166 C 
BRANCH 121 122
ATOM    122  OG  SER A   8      15.151  -8.970  19.246  0.00  0.00    -0.380 OA
ATOM    123  H   SER A   8      15.845  -9.675  19.205  0.00  0.00    +0.211 HD
ENDBRANCH 121 122
ENDBRANCH 108 121
ENDBRANCH 106 108
ENDBRANCH 103 104
BRANCH 103 124
ATOM    124  CB  ASP A   7       9.770  -7.560  18.513  0.00  0.00    +0.143 C 
BRANCH 124 125
ATOM    125  CG  ASP A   7       8.396  -7.913  17.985  0.00  0.00    +0.367 C 
ATOM    126  OD2 ASP A   7       7.780  -8.803  18.521  0.00  0.00    -0.246 OA
ATOM    127  OD1 ASP A   7       7.984  -7.267  17.049  0.00  0.00    -0.246 OA
ENDBRANCH 124 125
ENDBRANCH 103 124
ENDBRANCH 100 103
ENDBRANCH  98  99
ENDBRANCH  96  98
ENDBRANCH  93  94
BRANCH  93 128
ATOM    128  CB  GLU A   5      11.939 -14.104  16.775  0.00  0.00    +0.041 C 
BRANCH 128 129
ATOM    129  CG  GLU A   5      12.547 -15.140  17.780  0.00  0.00    +0.116 C 
BRANCH 129 130
ATOM    130  CD  GLU A   5      14.088 -15.194  17.726  0.00  0.00    +0.365 C 
ATOM    131  OE2 GLU A   5      14.609 -16.003  18.475  0.00  0.00    -0.246 OA
ATOM    132  OE1 GLU A   5      14.675 -14.451  16.959  0.00  0.00    -0.246 OA
ENDBRANCH 129 130
ENDBRANCH 128 129
ENDBRANCH  93 128
ENDBRANCH  91  93
ENDBRANCH  88  89
BRANCH  88 135
ATOM    133  C   TRP A   3       8.370 -10.390  21.840  0.00  0.00    +0.241 C 
ATOM    134  O   TRP A   3       8.343 -11.286  22.666  0.00  0.00    -0.273 OA
ATOM    135  N   GLY A   4       8.770 -10.596  20.625  0.00  0.00    -0.296 N 
ATOM    136  H   GLY A   4       8.788  -9.806  19.949  0.00  0.00    +0.150 HD
BRANCH 133 137
ATOM    137  CA  TRP A   3       7.929  -8.962  22.234  0.00  0.00    +0.149 C 
ATOM    138  CB  TRP A   3       9.154  -8.066  22.331  0.00  0.00    +0.031 C 
BRANCH 137 140
ATOM    139  C   SER A   2       6.111  -9.503  23.726  0.00  0.00    +0.241 C 
ATOM    140  N   TRP A   3       7.377  -9.274  23.556  0.00  0.00    -0.297 N 
ATOM    141  H   TRP A   3       8.015  -9.313  24.377  0.00  0.00    +0.150 HD
ATOM    142  O   SER A   2       5.301  -9.447  22.813  0.00  0.00    -0.273 OA
BRANCH 139 143
ATOM    143  CA  SER A   2       5.710  -9.847  25.184  0.00  0.00    +0.160 C 
BRANCH 143 146
ATOM    144  C   VAL A   1       3.614 -10.064  26.376  0.00  0.00    +0.240 C 
ATOM    145  O   VAL A   1       4.152 -10.386  27.423  0.00  0.00    -0.274 OA
ATOM    146  N   SER A   2       4.237  -9.793  25.268  0.00  0.00    -0.297 N 
ATOM    147  H   SER A   2       3.687  -9.533  24.424  0.00  0.00    +0.150 HD
BRANCH 144 148
ATOM    148  CA  VAL A   1       2.135  -9.959  26.305  0.00  0.00    +0.169 C 
BRANCH 148 149
ATOM    149  N   VAL A   1       1.428 -10.851  27.245  0.00  0.00    -0.236 NA
ATOM    150  H   VAL A   1       1.677 -11.860  27.286  0.00  0.00    +0.142 HD
ENDBRANCH 148 149
ENDBRANCH 144 148
ENDBRANCH 143 146
BRANCH 143 151
ATOM    151  CB  SER A   2       6.202 -11.307  25.551  0.00  0.00    +0.143 C 
BRANCH 151 152
ATOM    152  CG  SER A   2       7.725 -11.446  25.789  0.00  0.00    +0.367 C 
ATOM    153  OD2 SER A   2       8.413 -10.455  25.887  0.00  0.00    -0.246 OA
ATOM    154  OD1 SER A   2       8.157 -12.580  25.874  0.00  0.00    -0.246 OA
ENDBRANCH 151 152
ENDBRANCH 143 151
ENDBRANCH 139 143
ENDBRANCH 137 140
ENDBRANCH 133 137
ENDBRANCH  88 135
ENDBRANCH  87  88
ENDBRANCH  86  87
ENDBRANCH  85  86
ENDBRANCH  84  85
ENDBRANCH   1  84
TORSDOF 66
REMARK  Name = ../refined-set-2016/1ghy/1ghy_pocket.pdb
REMARK  161 active torsions:
REMARK  status: ('A' for Active; 'I' for Inactive)
REMARK    1  A    between atoms: _1  and  _5
REMARK    2  A    between atoms: _5  and  _6
REMARK    3  A    between atoms: _5  and  _8
REMARK    4  A    between atoms: _8  and  _9
REMARK    5  A    between atoms: _12  and  _14
REMARK    6  A    between atoms: _14  and  _15
REMARK    7  A    between atoms: _14  and  _17
REMARK    8  A    between atoms: _20  and  _22
REMARK    9  A    between atoms: _22  and  _23
REMARK   10  A    between atoms: _22  and  _25
REMARK   11  A    between atoms: _25  and  _26
REMARK   12  A    between atoms: _29  and  _31
REMARK   13  A    between atoms: _31  and  _32
REMARK   14  A    between atoms: _31  and  _34
REMARK   15  A    between atoms: _34  and  _35
REMARK   16  A    between atoms: _35  and  _53
REMARK   17  A    between atoms: _36  and  _38
REMARK   18  A    between atoms: _38  and  _39
REMARK   19  A    between atoms: _38  and  _41
REMARK   20  A    between atoms: _41  and  _42
REMARK   21  A    between atoms: _47  and  _49
REMARK   22  A    between atoms: _49  and  _50
REMARK   23  A    between atoms: _49  and  _52
REMARK   24  A    between atoms: _52  and  _53
REMARK   25  A    between atoms: _54  and  _56
REMARK   26  A    between atoms: _56  and  _57
REMARK   27  A    between atoms: _56  and  _59
REMARK   28  A    between atoms: _59  and  _60
REMARK   29  A    between atoms: _65  and  _66
REMARK   30  A    between atoms: _69  and  _70
REMARK   31  A    between atoms: _75  and  _77
REMARK   32  A    between atoms: _77  and  _78
REMARK   33  A    between atoms: _77  and  _80
REMARK   34  A    between atoms: _80  and  _81
REMARK   35  A    between atoms: _91  and  _93
REMARK   36  A    between atoms: _93  and  _94
REMARK   37  A    between atoms: _93  and  _96
REMARK   38  A    between atoms: _96  and  _97
REMARK   39  A    between atoms: _97  and  _98
REMARK   40  A    between atoms: _98  and  _99
REMARK   41  A    between atoms: _99  and  _100
REMARK   42  A    between atoms: _104  and  _106
REMARK   43  A    between atoms: _106  and  _107
REMARK   44  A    between atoms: _106  and  _109
REMARK   45  A    between atoms: _109  and  _110
REMARK   46  A    between atoms: _115  and  _116
REMARK   47  A    between atoms: _118  and  _120
REMARK   48  A    between atoms: _120  and  _121
REMARK   49  A    between atoms: _120  and  _123
REMARK   50  A    between atoms: _123  and  _124
REMARK   51  A    between atoms: _127  and  _129
REMARK   52  A    between atoms: _129  and  _130
REMARK   53  A    between atoms: _129  and  _132
REMARK   54  A    between atoms: _132  and  _133
REMARK   55  A    between atoms: _136  and  _138
REMARK   56  A    between atoms: _138  and  _139
REMARK   57  A    between atoms: _138  and  _141
REMARK   58  A    between atoms: _144  and  _146
REMARK   59  A    between atoms: _146  and  _147
REMARK   60  A    between atoms: _146  and  _149
REMARK   61  A    between atoms: _149  and  _150
REMARK   62  A    between atoms: _155  and  _157
REMARK   63  A    between atoms: _157  and  _158
REMARK   64  A    between atoms: _157  and  _160
REMARK   65  A    between atoms: _160  and  _161
REMARK   66  A    between atoms: _161  and  _162
REMARK   67  A    between atoms: _165  and  _167
REMARK   68  A    between atoms: _167  and  _168
REMARK   69  A    between atoms: _167  and  _170
REMARK   70  A    between atoms: _170  and  _171
REMARK   71  A    between atoms: _174  and  _176
REMARK   72  A    between atoms: _176  and  _177
REMARK   73  A    between atoms: _180  and  _182
REMARK   74  A    between atoms: _182  and  _183
REMARK   75  A    between atoms: _185  and  _187
REMARK   76  A    between atoms: _187  and  _188
REMARK   77  A    between atoms: _187  and  _190
REMARK   78  A    between atoms: _190  and  _191
REMARK   79  A    between atoms: _194  and  _196
REMARK   80  A    between atoms: _196  and  _197
REMARK   81  A    between atoms: _200  and  _202
REMARK   82  A    between atoms: _202  and  _203
REMARK   83  A    between atoms: _202  and  _205
REMARK   84  A    between atoms: _205  and  _206
REMARK   85  A    between atoms: _206  and  _307
REMARK   86  A    between atoms: _207  and  _209
REMARK   87  A    between atoms: _209  and  _210
REMARK   88  A    between atoms: _209  and  _212
REMARK   89  A    between atoms: _212  and  _213
REMARK   90  A    between atoms: _213  and  _214
REMARK   91  A    between atoms: _217  and  _219
REMARK   92  A    between atoms: _219  and  _220
REMARK   93  A    between atoms: _222  and  _224
REMARK   94  A    between atoms: _224  and  _225
REMARK   95  A    between atoms: _224  and  _227
REMARK   96  A    between atoms: _227  and  _228
REMARK   97  A    between atoms: _231  and  _233
REMARK   98  A    between atoms: _233  and  _234
REMARK   99  A    between atoms: _233  and  _236
REMARK  100  A    between atoms: _236  and  _237
REMARK  101  A    between atoms: _239  and  _241
REMARK  102  A    between atoms: _241  and  _242
REMARK  103  A    between atoms: _244  and  _246
REMARK  104  A    between atoms: _246  and  _247
REMARK  105  A    between atoms: _249  and  _251
REMARK  106  A    between atoms: _251  and  _252
REMARK  107  A    between atoms: _251  and  _254
REMARK  108  A    between atoms: _257  and  _259
REMARK  109  A    between atoms: _259  and  _260
REMARK  110  A    between atoms: _259  and  _262
REMARK  111  A    between atoms: _262  and  _263
REMARK  112  A    between atoms: _265  and  _267
REMARK  113  A    between atoms: _267  and  _268
REMARK  114  A    between atoms: _267  and  _270
REMARK  115  A    between atoms: _270  and  _271
REMARK  116  A    between atoms: _281  and  _283
REMARK  117  A    between atoms: _283  and  _284
REMARK  118  A    between atoms: _286  and  _288
REMARK  119  A    between atoms: _288  and  _289
REMARK  120  A    between atoms: _288  and  _291
REMARK  121  A    between atoms: _291  and  _292
REMARK  122  A    between atoms: _292  and  _293
REMARK  123  A    between atoms: _296  and  _298
REMARK  124  A    between atoms: _298  and  _299
REMARK  125  A    between atoms: _301  and  _303
REMARK  126  A    between atoms: _303  and  _304
REMARK  127  A    between atoms: _303  and  _306
REMARK  128  A    between atoms: _306  and  _307
REMARK  129  A    between atoms: _308  and  _310
REMARK  130  A    between atoms: _310  and  _311
REMARK  131  A    between atoms: _310  and  _313
REMARK  132  A    between atoms: _313  and  _314
REMARK  133  A    between atoms: _317  and  _319
REMARK  134  A    between atoms: _319  and  _320
REMARK  135  A    between atoms: _319  and  _322
REMARK  136  A    between atoms: _322  and  _323
REMARK  137  A    between atoms: _323  and  _324
REMARK  138  A    between atoms: _324  and  _325
REMARK  139  A    between atoms: _334  and  _336
REMARK  140  A    between atoms: _336  and  _337
REMARK  141  A    between atoms: _336  and  _339
REMARK  142  A    between atoms: _339  and  _340
REMARK  143  A    between atoms: _340  and  _341
REMARK  144  A    between atoms: _341  and  _342
REMARK  145  A    between atoms: _342  and  _343
REMARK  146  A    between atoms: _347  and  _349
REMARK  147  A    between atoms: _349  and  _350
REMARK  148  A    between atoms: _349  and  _352
REMARK  149  A    between atoms: _352  and  _353
REMARK  150  A    between atoms: _358  and  _359
REMARK  151  A    between atoms: _361  and  _363
REMARK  152  A    between atoms: _363  and  _364
REMARK  153  A    between atoms: _366  and  _368
REMARK  154  A    between atoms: _368  and  _369
REMARK  155  A    between atoms: _368  and  _371
REMARK  156  A    between atoms: _371  and  _372
REMARK  157  A    between atoms: _378  and  _380
REMARK  158  A    between atoms: _380  and  _381
REMARK  159  A    between atoms: _380  and  _383
REMARK  160  A    between atoms: _383  and  _384
REMARK  161  A    between atoms: _389  and  _390
REMARK                            x       y       z     vdW  Elec       q    Type
REMARK                         _______ _______ _______ _____ _____    ______ ____
ROOT
ATOM      1  C   TYR A   2      11.035 -11.443  29.870  0.00  0.00    +0.241 C 
ATOM      2  O   TYR A   2      11.873 -12.218  29.435  0.00  0.00    -0.273 OA
ATOM      3  N   GLY A   3      10.789 -10.275  29.343  0.00  0.00    -0.295 N 
ATOM      4  H   GLY A   3      10.060  -9.656  29.751  0.00  0.00    +0.150 HD
ENDROOT
BRANCH   1   5
ATOM      5  CA  TYR A   2      10.206 -11.809  31.106  0.00  0.00    +0.153 C 
BRANCH   5   8
ATOM      6  C   LYS A   1       9.388 -14.034  31.723  0.00  0.00    +0.238 C 
ATOM      7  O   LYS A   1       8.229 -13.658  31.694  0.00  0.00    -0.274 OA
ATOM      8  N   TYR A   2      10.395 -13.254  31.453  0.00  0.00    -0.297 N 
ATOM      9  H   TYR A   2      11.358 -13.645  31.479  0.00  0.00    +0.150 HD
BRANCH   6  10
ATOM     10  CA  LYS A   1       9.707 -15.504  32.083  0.00  0.00    +0.145 C 
BRANCH  10  11
ATOM     11  N   LYS A   1       8.511 -16.102  32.767  0.00  0.00    -0.238 NA
ATOM     12  H   LYS A   1       7.649 -16.301  32.221  0.00  0.00    +0.142 HD
ENDBRANCH  10  11
BRANCH  10  13
ATOM     13  CB  LYS A   1      10.014 -16.333  30.813  0.00  0.00    +0.026 C 
BRANCH  13  14
ATOM     14  CG  LYS A   1      10.387 -17.813  31.182  0.00  0.00    -0.000 C 
BRANCH  14  15
ATOM     15  CD  LYS A   1      11.775 -17.852  31.870  0.00  0.00    -0.024 C 
BRANCH  15  16
ATOM     16  CE  LYS A   1      12.251 -19.292  32.066  0.00  0.00    -0.086 C 
BRANCH  16  17
ATOM     17  NZ  LYS A   1      13.675 -19.279  32.522  0.00  0.00    +0.380 N 
ATOM     18  HZ1 LYS A   1      13.745 -18.761  33.421  0.00  0.00    -0.089 HD
ATOM     19  HZ2 LYS A   1      14.004 -20.257  32.657  0.00  0.00    -0.089 HD
ATOM     20  HZ3 LYS A   1      14.263 -18.810  31.804  0.00  0.00    -0.089 HD
ENDBRANCH  16  17
ENDBRANCH  15  16
ENDBRANCH  14  15
ENDBRANCH  13  14
ENDBRANCH  10  13
ENDBRANCH   6  10
ENDBRANCH   5   8
BRANCH   5  21
ATOM     21  CB  TYR A   2      10.655 -10.911  32.362  0.00  0.00    +0.055 C 
BRANCH  21  22
ATOM     22  CG  TYR A   2       9.788 -11.357  33.529  0.00  0.00    -0.020 A 
ATOM     23  CD2 TYR A   2      10.232 -12.335  34.396  0.00  0.00    -0.001 A 
ATOM     24  CE2 TYR A   2       9.398 -12.779  35.400  0.00  0.00    +0.036 A 
ATOM     25  CZ  TYR A   2       8.136 -12.249  35.546  0.00  0.00    +0.134 A 
ATOM     26  CE1 TYR A   2       7.699 -11.255  34.687  0.00  0.00    +0.036 A 
ATOM     27  CD1 TYR A   2       8.531 -10.821  33.683  0.00  0.00    -0.001 A 
BRANCH  25  28
ATOM     28  OH  TYR A   2       7.294 -12.727  36.536  0.00  0.00    -0.506 OA
ATOM     29  HH  TYR A   2       7.133 -13.693  36.393  0.00  0.00    +0.292 HD
ENDBRANCH  25  28
ENDBRANCH  21  22
ENDBRANCH   5  21
ENDBRANCH   1   5
BRANCH   3  30
ATOM     30  CA  GLY A   3      11.558  -9.846  28.163  0.00  0.00    +0.176 C 
BRANCH  30  31
ATOM     31  C   GLY A   3      12.599  -8.894  28.761  0.00  0.00    +0.243 C 
ATOM     32  O   GLY A   3      12.289  -8.219  29.722  0.00  0.00    -0.273 OA
ATOM     33  N   PHE A   4      13.770  -8.855  28.202  0.00  0.00    -0.297 N 
ATOM     34  H   PHE A   4      13.956  -9.461  27.377  0.00  0.00    +0.150 HD
BRANCH  33  35
ATOM     35  CA  PHE A   4      14.842  -7.979  28.701  0.00  0.00    +0.153 C 
BRANCH  35  36
ATOM     36  C   PHE A   4      15.012  -6.930  27.668  0.00  0.00    +0.241 C 
ATOM     37  N   TYR A   5      15.316  -5.775  28.153  0.00  0.00    -0.298 N 
ATOM     38  H   TYR A   5      15.426  -5.670  29.182  0.00  0.00    +0.150 HD
ATOM     39  O   PHE A   4      14.873  -7.182  26.484  0.00  0.00    -0.273 OA
BRANCH  37  40
ATOM     40  CA  TYR A   5      15.511  -4.603  27.289  0.00  0.00    +0.141 C 
BRANCH  40  41
ATOM     41  C   TYR A   5      16.799  -3.871  27.614  0.00  0.00    +0.227 C 
ATOM     42  O   TYR A   5      17.192  -3.869  28.763  0.00  0.00    -0.286 OA
ENDBRANCH  40  41
BRANCH  40  43
ATOM     43  CB  TYR A   5      14.330  -3.676  27.503  0.00  0.00    +0.054 C 
BRANCH  43  44
ATOM     44  CG  TYR A   5      12.992  -4.299  27.152  0.00  0.00    -0.020 A 
ATOM     45  CD2 TYR A   5      12.391  -5.211  28.007  0.00  0.00    -0.001 A 
ATOM     46  CE2 TYR A   5      11.184  -5.769  27.671  0.00  0.00    +0.036 A 
ATOM     47  CZ  TYR A   5      10.582  -5.416  26.490  0.00  0.00    +0.134 A 
ATOM     48  CE1 TYR A   5      11.163  -4.527  25.656  0.00  0.00    +0.036 A 
ATOM     49  CD1 TYR A   5      12.362  -3.961  25.963  0.00  0.00    -0.001 A 
BRANCH  47  50
ATOM     50  OH  TYR A   5       9.371  -5.949  26.126  0.00  0.00    -0.506 OA
ATOM     51  HH  TYR A   5       9.066  -6.580  26.825  0.00  0.00    +0.292 HD
ENDBRANCH  47  50
ENDBRANCH  43  44
ENDBRANCH  40  43
ENDBRANCH  37  40
ENDBRANCH  35  36
BRANCH  35  52
ATOM     52  CB  PHE A   4      16.135  -8.804  28.897  0.00  0.00    +0.055 C 
BRANCH  52  53
ATOM     53  CG  PHE A   4      15.854  -9.615  30.184  0.00  0.00    -0.020 A 
ATOM     54  CD2 PHE A   4      16.242  -9.098  31.406  0.00  0.00    -0.004 A 
ATOM     55  CE2 PHE A   4      15.949  -9.782  32.562  0.00  0.00    -0.000 A 
ATOM     56  CZ  PHE A   4      15.270 -10.985  32.506  0.00  0.00    -0.000 A 
ATOM     57  CE1 PHE A   4      14.889 -11.499  31.294  0.00  0.00    -0.000 A 
ATOM     58  CD1 PHE A   4      15.180 -10.818  30.140  0.00  0.00    -0.004 A 
ENDBRANCH  52  53
ENDBRANCH  35  52
ENDBRANCH  33  35
ENDBRANCH  30  31
ENDBRANCH   3  30
TORSDOF 23
REMARK  Name = ../refined-set-2016/1ghy/1ghy_pocket.pdb
REMARK  161 active torsions:
REMARK  status: ('A' for Active; 'I' for Inactive)
REMARK    1  A    between atoms: _1  and  _5
REMARK    2  A    between atoms: _5  and  _6
REMARK    3  A    between atoms: _5  and  _8
REMARK    4  A    between atoms: _8  and  _9
REMARK    5  A    between atoms: _12  and  _14
REMARK    6  A    between atoms: _14  and  _15
REMARK    7  A    between atoms: _14  and  _17
REMARK    8  A    between atoms: _20  and  _22
REMARK    9  A    between atoms: _22  and  _23
REMARK   10  A    between atoms: _22  and  _25
REMARK   11  A    between atoms: _25  and  _26
REMARK   12  A    between atoms: _29  and  _31
REMARK   13  A    between atoms: _31  and  _32
REMARK   14  A    between atoms: _31  and  _34
REMARK   15  A    between atoms: _34  and  _35
REMARK   16  A    between atoms: _35  and  _53
REMARK   17  A    between atoms: _36  and  _38
REMARK   18  A    between atoms: _38  and  _39
REMARK   19  A    between atoms: _38  and  _41
REMARK   20  A    between atoms: _41  and  _42
REMARK   21  A    between atoms: _47  and  _49
REMARK   22  A    between atoms: _49  and  _50
REMARK   23  A    between atoms: _49  and  _52
REMARK   24  A    between atoms: _52  and  _53
REMARK   25  A    between atoms: _54  and  _56
REMARK   26  A    between atoms: _56  and  _57
REMARK   27  A    between atoms: _56  and  _59
REMARK   28  A    between atoms: _59  and  _60
REMARK   29  A    between atoms: _65  and  _66
REMARK   30  A    between atoms: _69  and  _70
REMARK   31  A    between atoms: _75  and  _77
REMARK   32  A    between atoms: _77  and  _78
REMARK   33  A    between atoms: _77  and  _80
REMARK   34  A    between atoms: _80  and  _81
REMARK   35  A    between atoms: _91  and  _93
REMARK   36  A    between atoms: _93  and  _94
REMARK   37  A    between atoms: _93  and  _96
REMARK   38  A    between atoms: _96  and  _97
REMARK   39  A    between atoms: _97  and  _98
REMARK   40  A    between atoms: _98  and  _99
REMARK   41  A    between atoms: _99  and  _100
REMARK   42  A    between atoms: _104  and  _106
REMARK   43  A    between atoms: _106  and  _107
REMARK   44  A    between atoms: _106  and  _109
REMARK   45  A    between atoms: _109  and  _110
REMARK   46  A    between atoms: _115  and  _116
REMARK   47  A    between atoms: _118  and  _120
REMARK   48  A    between atoms: _120  and  _121
REMARK   49  A    between atoms: _120  and  _123
REMARK   50  A    between atoms: _123  and  _124
REMARK   51  A    between atoms: _127  and  _129
REMARK   52  A    between atoms: _129  and  _130
REMARK   53  A    between atoms: _129  and  _132
REMARK   54  A    between atoms: _132  and  _133
REMARK   55  A    between atoms: _136  and  _138
REMARK   56  A    between atoms: _138  and  _139
REMARK   57  A    between atoms: _138  and  _141
REMARK   58  A    between atoms: _144  and  _146
REMARK   59  A    between atoms: _146  and  _147
REMARK   60  A    between atoms: _146  and  _149
REMARK   61  A    between atoms: _149  and  _150
REMARK   62  A    between atoms: _155  and  _157
REMARK   63  A    between atoms: _157  and  _158
REMARK   64  A    between atoms: _157  and  _160
REMARK   65  A    between atoms: _160  and  _161
REMARK   66  A    between atoms: _161  and  _162
REMARK   67  A    between atoms: _165  and  _167
REMARK   68  A    between atoms: _167  and  _168
REMARK   69  A    between atoms: _167  and  _170
REMARK   70  A    between atoms: _170  and  _171
REMARK   71  A    between atoms: _174  and  _176
REMARK   72  A    between atoms: _176  and  _177
REMARK   73  A    between atoms: _180  and  _182
REMARK   74  A    between atoms: _182  and  _183
REMARK   75  A    between atoms: _185  and  _187
REMARK   76  A    between atoms: _187  and  _188
REMARK   77  A    between atoms: _187  and  _190
REMARK   78  A    between atoms: _190  and  _191
REMARK   79  A    between atoms: _194  and  _196
REMARK   80  A    between atoms: _196  and  _197
REMARK   81  A    between atoms: _200  and  _202
REMARK   82  A    between atoms: _202  and  _203
REMARK   83  A    between atoms: _202  and  _205
REMARK   84  A    between atoms: _205  and  _206
REMARK   85  A    between atoms: _206  and  _307
REMARK   86  A    between atoms: _207  and  _209
REMARK   87  A    between atoms: _209  and  _210
REMARK   88  A    between atoms: _209  and  _212
REMARK   89  A    between atoms: _212  and  _213
REMARK   90  A    between atoms: _213  and  _214
REMARK   91  A    between atoms: _217  and  _219
REMARK   92  A    between atoms: _219  and  _220
REMARK   93  A    between atoms: _222  and  _224
REMARK   94  A    between atoms: _224  and  _225
REMARK   95  A    between atoms: _224  and  _227
REMARK   96  A    between atoms: _227  and  _228
REMARK   97  A    between atoms: _231  and  _233
REMARK   98  A    between atoms: _233  and  _234
REMARK   99  A    between atoms: _233  and  _236
REMARK  100  A    between atoms: _236  and  _237
REMARK  101  A    between atoms: _239  and  _241
REMARK  102  A    between atoms: _241  and  _242
REMARK  103  A    between atoms: _244  and  _246
REMARK  104  A    between atoms: _246  and  _247
REMARK  105  A    between atoms: _249  and  _251
REMARK  106  A    between atoms: _251  and  _252
REMARK  107  A    between atoms: _251  and  _254
REMARK  108  A    between atoms: _257  and  _259
REMARK  109  A    between atoms: _259  and  _260
REMARK  110  A    between atoms: _259  and  _262
REMARK  111  A    between atoms: _262  and  _263
REMARK  112  A    between atoms: _265  and  _267
REMARK  113  A    between atoms: _267  and  _268
REMARK  114  A    between atoms: _267  and  _270
REMARK  115  A    between atoms: _270  and  _271
REMARK  116  A    between atoms: _281  and  _283
REMARK  117  A    between atoms: _283  and  _284
REMARK  118  A    between atoms: _286  and  _288
REMARK  119  A    between atoms: _288  and  _289
REMARK  120  A    between atoms: _288  and  _291
REMARK  121  A    between atoms: _291  and  _292
REMARK  122  A    between atoms: _292  and  _293
REMARK  123  A    between atoms: _296  and  _298
REMARK  124  A    between atoms: _298  and  _299
REMARK  125  A    between atoms: _301  and  _303
REMARK  126  A    between atoms: _303  and  _304
REMARK  127  A    between atoms: _303  and  _306
REMARK  128  A    between atoms: _306  and  _307
REMARK  129  A    between atoms: _308  and  _310
REMARK  130  A    between atoms: _310  and  _311
REMARK  131  A    between atoms: _310  and  _313
REMARK  132  A    between atoms: _313  and  _314
REMARK  133  A    between atoms: _317  and  _319
REMARK  134  A    between atoms: _319  and  _320
REMARK  135  A    between atoms: _319  and  _322
REMARK  136  A    between atoms: _322  and  _323
REMARK  137  A    between atoms: _323  and  _324
REMARK  138  A    between atoms: _324  and  _325
REMARK  139  A    between atoms: _334  and  _336
REMARK  140  A    between atoms: _336  and  _337
REMARK  141  A    between atoms: _336  and  _339
REMARK  142  A    between atoms: _339  and  _340
REMARK  143  A    between atoms: _340  and  _341
REMARK  144  A    between atoms: _341  and  _342
REMARK  145  A    between atoms: _342  and  _343
REMARK  146  A    between atoms: _347  and  _349
REMARK  147  A    between atoms: _349  and  _350
REMARK  148  A    between atoms: _349  and  _352
REMARK  149  A    between atoms: _352  and  _353
REMARK  150  A    between atoms: _358  and  _359
REMARK  151  A    between atoms: _361  and  _363
REMARK  152  A    between atoms: _363  and  _364
REMARK  153  A    between atoms: _366  and  _368
REMARK  154  A    between atoms: _368  and  _369
REMARK  155  A    between atoms: _368  and  _371
REMARK  156  A    between atoms: _371  and  _372
REMARK  157  A    between atoms: _378  and  _380
REMARK  158  A    between atoms: _380  and  _381
REMARK  159  A    between atoms: _380  and  _383
REMARK  160  A    between atoms: _383  and  _384
REMARK  161  A    between atoms: _389  and  _390
REMARK                            x       y       z     vdW  Elec       q    Type
REMARK                         _______ _______ _______ _____ _____    ______ ____
ROOT
ATOM      1 ZN   UNL     1      15.867 -15.353  22.568  0.00  0.00    +0.000 Zn
ENDROOT
TORSDOF 0
REMARK  Name = ../refined-set-2016/1ghy/1ghy_pocket.pdb
REMARK  161 active torsions:
REMARK  status: ('A' for Active; 'I' for Inactive)
REMARK    1  A    between atoms: _1  and  _5
REMARK    2  A    between atoms: _5  and  _6
REMARK    3  A    between atoms: _5  and  _8
REMARK    4  A    between atoms: _8  and  _9
REMARK    5  A    between atoms: _12  and  _14
REMARK    6  A    between atoms: _14  and  _15
REMARK    7  A    between atoms: _14  and  _17
REMARK    8  A    between atoms: _20  and  _22
REMARK    9  A    between atoms: _22  and  _23
REMARK   10  A    between atoms: _22  and  _25
REMARK   11  A    between atoms: _25  and  _26
REMARK   12  A    between atoms: _29  and  _31
REMARK   13  A    between atoms: _31  and  _32
REMARK   14  A    between atoms: _31  and  _34
REMARK   15  A    between atoms: _34  and  _35
REMARK   16  A    between atoms: _35  and  _53
REMARK   17  A    between atoms: _36  and  _38
REMARK   18  A    between atoms: _38  and  _39
REMARK   19  A    between atoms: _38  and  _41
REMARK   20  A    between atoms: _41  and  _42
REMARK   21  A    between atoms: _47  and  _49
REMARK   22  A    between atoms: _49  and  _50
REMARK   23  A    between atoms: _49  and  _52
REMARK   24  A    between atoms: _52  and  _53
REMARK   25  A    between atoms: _54  and  _56
REMARK   26  A    between atoms: _56  and  _57
REMARK   27  A    between atoms: _56  and  _59
REMARK   28  A    between atoms: _59  and  _60
REMARK   29  A    between atoms: _65  and  _66
REMARK   30  A    between atoms: _69  and  _70
REMARK   31  A    between atoms: _75  and  _77
REMARK   32  A    between atoms: _77  and  _78
REMARK   33  A    between atoms: _77  and  _80
REMARK   34  A    between atoms: _80  and  _81
REMARK   35  A    between atoms: _91  and  _93
REMARK   36  A    between atoms: _93  and  _94
REMARK   37  A    between atoms: _93  and  _96
REMARK   38  A    between atoms: _96  and  _97
REMARK   39  A    between atoms: _97  and  _98
REMARK   40  A    between atoms: _98  and  _99
REMARK   41  A    between atoms: _99  and  _100
REMARK   42  A    between atoms: _104  and  _106
REMARK   43  A    between atoms: _106  and  _107
REMARK   44  A    between atoms: _106  and  _109
REMARK   45  A    between atoms: _109  and  _110
REMARK   46  A    between atoms: _115  and  _116
REMARK   47  A    between atoms: _118  and  _120
REMARK   48  A    between atoms: _120  and  _121
REMARK   49  A    between atoms: _120  and  _123
REMARK   50  A    between atoms: _123  and  _124
REMARK   51  A    between atoms: _127  and  _129
REMARK   52  A    between atoms: _129  and  _130
REMARK   53  A    between atoms: _129  and  _132
REMARK   54  A    between atoms: _132  and  _133
REMARK   55  A    between atoms: _136  and  _138
REMARK   56  A    between atoms: _138  and  _139
REMARK   57  A    between atoms: _138  and  _141
REMARK   58  A    between atoms: _144  and  _146
REMARK   59  A    between atoms: _146  and  _147
REMARK   60  A    between atoms: _146  and  _149
REMARK   61  A    between atoms: _149  and  _150
REMARK   62  A    between atoms: _155  and  _157
REMARK   63  A    between atoms: _157  and  _158
REMARK   64  A    between atoms: _157  and  _160
REMARK   65  A    between atoms: _160  and  _161
REMARK   66  A    between atoms: _161  and  _162
REMARK   67  A    between atoms: _165  and  _167
REMARK   68  A    between atoms: _167  and  _168
REMARK   69  A    between atoms: _167  and  _170
REMARK   70  A    between atoms: _170  and  _171
REMARK   71  A    between atoms: _174  and  _176
REMARK   72  A    between atoms: _176  and  _177
REMARK   73  A    between atoms: _180  and  _182
REMARK   74  A    between atoms: _182  and  _183
REMARK   75  A    between atoms: _185  and  _187
REMARK   76  A    between atoms: _187  and  _188
REMARK   77  A    between atoms: _187  and  _190
REMARK   78  A    between atoms: _190  and  _191
REMARK   79  A    between atoms: _194  and  _196
REMARK   80  A    between atoms: _196  and  _197
REMARK   81  A    between atoms: _200  and  _202
REMARK   82  A    between atoms: _202  and  _203
REMARK   83  A    between atoms: _202  and  _205
REMARK   84  A    between atoms: _205  and  _206
REMARK   85  A    between atoms: _206  and  _307
REMARK   86  A    between atoms: _207  and  _209
REMARK   87  A    between atoms: _209  and  _210
REMARK   88  A    between atoms: _209  and  _212
REMARK   89  A    between atoms: _212  and  _213
REMARK   90  A    between atoms: _213  and  _214
REMARK   91  A    between atoms: _217  and  _219
REMARK   92  A    between atoms: _219  and  _220
REMARK   93  A    between atoms: _222  and  _224
REMARK   94  A    between atoms: _224  and  _225
REMARK   95  A    between atoms: _224  and  _227
REMARK   96  A    between atoms: _227  and  _228
REMARK   97  A    between atoms: _231  and  _233
REMARK   98  A    between atoms: _233  and  _234
REMARK   99  A    between atoms: _233  and  _236
REMARK  100  A    between atoms: _236  and  _237
REMARK  101  A    between atoms: _239  and  _241
REMARK  102  A    between atoms: _241  and  _242
REMARK  103  A    between atoms: _244  and  _246
REMARK  104  A    between atoms: _246  and  _247
REMARK  105  A    between atoms: _249  and  _251
REMARK  106  A    between atoms: _251  and  _252
REMARK  107  A    between atoms: _251  and  _254
REMARK  108  A    between atoms: _257  and  _259
REMARK  109  A    between atoms: _259  and  _260
REMARK  110  A    between atoms: _259  and  _262
REMARK  111  A    between atoms: _262  and  _263
REMARK  112  A    between atoms: _265  and  _267
REMARK  113  A    between atoms: _267  and  _268
REMARK  114  A    between atoms: _267  and  _270
REMARK  115  A    between atoms: _270  and  _271
REMARK  116  A    between atoms: _281  and  _283
REMARK  117  A    between atoms: _283  and  _284
REMARK  118  A    between atoms: _286  and  _288
REMARK  119  A    between atoms: _288  and  _289
REMARK  120  A    between atoms: _288  and  _291
REMARK  121  A    between atoms: _291  and  _292
REMARK  122  A    between atoms: _292  and  _293
REMARK  123  A    between atoms: _296  and  _298
REMARK  124  A    between atoms: _298  and  _299
REMARK  125  A    between atoms: _301  and  _303
REMARK  126  A    between atoms: _303  and  _304
REMARK  127  A    between atoms: _303  and  _306
REMARK  128  A    between atoms: _306  and  _307
REMARK  129  A    between atoms: _308  and  _310
REMARK  130  A    between atoms: _310  and  _311
REMARK  131  A    between atoms: _310  and  _313
REMARK  132  A    between atoms: _313  and  _314
REMARK  133  A    between atoms: _317  and  _319
REMARK  134  A    between atoms: _319  and  _320
REMARK  135  A    between atoms: _319  and  _322
REMARK  136  A    between atoms: _322  and  _323
REMARK  137  A    between atoms: _323  and  _324
REMARK  138  A    between atoms: _324  and  _325
REMARK  139  A    between atoms: _334  and  _336
REMARK  140  A    between atoms: _336  and  _337
REMARK  141  A    between atoms: _336  and  _339
REMARK  142  A    between atoms: _339  and  _340
REMARK  143  A    between atoms: _340  and  _341
REMARK  144  A    between atoms: _341  and  _342
REMARK  145  A    between atoms: _342  and  _343
REMARK  146  A    between atoms: _347  and  _349
REMARK  147  A    between atoms: _349  and  _350
REMARK  148  A    between atoms: _349  and  _352
REMARK  149  A    between atoms: _352  and  _353
REMARK  150  A    between atoms: _358  and  _359
REMARK  151  A    between atoms: _361  and  _363
REMARK  152  A    between atoms: _363  and  _364
REMARK  153  A    between atoms: _366  and  _368
REMARK  154  A    between atoms: _368  and  _369
REMARK  155  A    between atoms: _368  and  _371
REMARK  156  A    between atoms: _371  and  _372
REMARK  157  A    between atoms: _378  and  _380
REMARK  158  A    between atoms: _380  and  _381
REMARK  159  A    between atoms: _380  and  _383
REMARK  160  A    between atoms: _383  and  _384
REMARK  161  A    between atoms: _389  and  _390
REMARK                            x       y       z     vdW  Elec       q    Type
REMARK                         _______ _______ _______ _____ _____    ______ ____
ROOT
ATOM      1  O   HOH     1       8.600  -8.295  27.461  0.00  0.00    +0.000 OA
ENDROOT
TORSDOF 0
REMARK  Name = ../refined-set-2016/1ghy/1ghy_pocket.pdb
REMARK  161 active torsions:
REMARK  status: ('A' for Active; 'I' for Inactive)
REMARK    1  A    between atoms: _1  and  _5
REMARK    2  A    between atoms: _5  and  _6
REMARK    3  A    between atoms: _5  and  _8
REMARK    4  A    between atoms: _8  and  _9
REMARK    5  A    between atoms: _12  and  _14
REMARK    6  A    between atoms: _14  and  _15
REMARK    7  A    between atoms: _14  and  _17
REMARK    8  A    between atoms: _20  and  _22
REMARK    9  A    between atoms: _22  and  _23
REMARK   10  A    between atoms: _22  and  _25
REMARK   11  A    between atoms: _25  and  _26
REMARK   12  A    between atoms: _29  and  _31
REMARK   13  A    between atoms: _31  and  _32
REMARK   14  A    between atoms: _31  and  _34
REMARK   15  A    between atoms: _34  and  _35
REMARK   16  A    between atoms: _35  and  _53
REMARK   17  A    between atoms: _36  and  _38
REMARK   18  A    between atoms: _38  and  _39
REMARK   19  A    between atoms: _38  and  _41
REMARK   20  A    between atoms: _41  and  _42
REMARK   21  A    between atoms: _47  and  _49
REMARK   22  A    between atoms: _49  and  _50
REMARK   23  A    between atoms: _49  and  _52
REMARK   24  A    between atoms: _52  and  _53
REMARK   25  A    between atoms: _54  and  _56
REMARK   26  A    between atoms: _56  and  _57
REMARK   27  A    between atoms: _56  and  _59
REMARK   28  A    between atoms: _59  and  _60
REMARK   29  A    between atoms: _65  and  _66
REMARK   30  A    between atoms: _69  and  _70
REMARK   31  A    between atoms: _75  and  _77
REMARK   32  A    between atoms: _77  and  _78
REMARK   33  A    between atoms: _77  and  _80
REMARK   34  A    between atoms: _80  and  _81
REMARK   35  A    between atoms: _91  and  _93
REMARK   36  A    between atoms: _93  and  _94
REMARK   37  A    between atoms: _93  and  _96
REMARK   38  A    between atoms: _96  and  _97
REMARK   39  A    between atoms: _97  and  _98
REMARK   40  A    between atoms: _98  and  _99
REMARK   41  A    between atoms: _99  and  _100
REMARK   42  A    between atoms: _104  and  _106
REMARK   43  A    between atoms: _106  and  _107
REMARK   44  A    between atoms: _106  and  _109
REMARK   45  A    between atoms: _109  and  _110
REMARK   46  A    between atoms: _115  and  _116
REMARK   47  A    between atoms: _118  and  _120
REMARK   48  A    between atoms: _120  and  _121
REMARK   49  A    between atoms: _120  and  _123
REMARK   50  A    between atoms: _123  and  _124
REMARK   51  A    between atoms: _127  and  _129
REMARK   52  A    between atoms: _129  and  _130
REMARK   53  A    between atoms: _129  and  _132
REMARK   54  A    between atoms: _132  and  _133
REMARK   55  A    between atoms: _136  and  _138
REMARK   56  A    between atoms: _138  and  _139
REMARK   57  A    between atoms: _138  and  _141
REMARK   58  A    between atoms: _144  and  _146
REMARK   59  A    between atoms: _146  and  _147
REMARK   60  A    between atoms: _146  and  _149
REMARK   61  A    between atoms: _149  and  _150
REMARK   62  A    between atoms: _155  and  _157
REMARK   63  A    between atoms: _157  and  _158
REMARK   64  A    between atoms: _157  and  _160
REMARK   65  A    between atoms: _160  and  _161
REMARK   66  A    between atoms: _161  and  _162
REMARK   67  A    between atoms: _165  and  _167
REMARK   68  A    between atoms: _167  and  _168
REMARK   69  A    between atoms: _167  and  _170
REMARK   70  A    between atoms: _170  and  _171
REMARK   71  A    between atoms: _174  and  _176
REMARK   72  A    between atoms: _176  and  _177
REMARK   73  A    between atoms: _180  and  _182
REMARK   74  A    between atoms: _182  and  _183
REMARK   75  A    between atoms: _185  and  _187
REMARK   76  A    between atoms: _187  and  _188
REMARK   77  A    between atoms: _187  and  _190
REMARK   78  A    between atoms: _190  and  _191
REMARK   79  A    between atoms: _194  and  _196
REMARK   80  A    between atoms: _196  and  _197
REMARK   81  A    between atoms: _200  and  _202
REMARK   82  A    between atoms: _202  and  _203
REMARK   83  A    between atoms: _202  and  _205
REMARK   84  A    between atoms: _205  and  _206
REMARK   85  A    between atoms: _206  and  _307
REMARK   86  A    between atoms: _207  and  _209
REMARK   87  A    between atoms: _209  and  _210
REMARK   88  A    between atoms: _209  and  _212
REMARK   89  A    between atoms: _212  and  _213
REMARK   90  A    between atoms: _213  and  _214
REMARK   91  A    between atoms: _217  and  _219
REMARK   92  A    between atoms: _219  and  _220
REMARK   93  A    between atoms: _222  and  _224
REMARK   94  A    between atoms: _224  and  _225
REMARK   95  A    between atoms: _224  and  _227
REMARK   96  A    between atoms: _227  and  _228
REMARK   97  A    between atoms: _231  and  _233
REMARK   98  A    between atoms: _233  and  _234
REMARK   99  A    between atoms: _233  and  _236
REMARK  100  A    between atoms: _236  and  _237
REMARK  101  A    between atoms: _239  and  _241
REMARK  102  A    between atoms: _241  and  _242
REMARK  103  A    between atoms: _244  and  _246
REMARK  104  A    between atoms: _246  and  _247
REMARK  105  A    between atoms: _249  and  _251
REMARK  106  A    between atoms: _251  and  _252
REMARK  107  A    between atoms: _251  and  _254
REMARK  108  A    between atoms: _257  and  _259
REMARK  109  A    between atoms: _259  and  _260
REMARK  110  A    between atoms: _259  and  _262
REMARK  111  A    between atoms: _262  and  _263
REMARK  112  A    between atoms: _265  and  _267
REMARK  113  A    between atoms: _267  and  _268
REMARK  114  A    between atoms: _267  and  _270
REMARK  115  A    between atoms: _270  and  _271
REMARK  116  A    between atoms: _281  and  _283
REMARK  117  A    between atoms: _283  and  _284
REMARK  118  A    between atoms: _286  and  _288
REMARK  119  A    between atoms: _288  and  _289
REMARK  120  A    between atoms: _288  and  _291
REMARK  121  A    between atoms: _291  and  _292
REMARK  122  A    between atoms: _292  and  _293
REMARK  123  A    between atoms: _296  and  _298
REMARK  124  A    between atoms: _298  and  _299
REMARK  125  A    between atoms: _301  and  _303
REMARK  126  A    between atoms: _303  and  _304
REMARK  127  A    between atoms: _303  and  _306
REMARK  128  A    between atoms: _306  and  _307
REMARK  129  A    between atoms: _308  and  _310
REMARK  130  A    between atoms: _310  and  _311
REMARK  131  A    between atoms: _310  and  _313
REMARK  132  A    between atoms: _313  and  _314
REMARK  133  A    between atoms: _317  and  _319
REMARK  134  A    between atoms: _319  and  _320
REMARK  135  A    between atoms: _319  and  _322
REMARK  136  A    between atoms: _322  and  _323
REMARK  137  A    between atoms: _323  and  _324
REMARK  138  A    between atoms: _324  and  _325
REMARK  139  A    between atoms: _334  and  _336
REMARK  140  A    between atoms: _336  and  _337
REMARK  141  A    between atoms: _336  and  _339
REMARK  142  A    between atoms: _339  and  _340
REMARK  143  A    between atoms: _340  and  _341
REMARK  144  A    between atoms: _341  and  _342
REMARK  145  A    between atoms: _342  and  _343
REMARK  146  A    between atoms: _347  and  _349
REMARK  147  A    between atoms: _349  and  _350
REMARK  148  A    between atoms: _349  and  _352
REMARK  149  A    between atoms: _352  and  _353
REMARK  150  A    between atoms: _358  and  _359
REMARK  151  A    between atoms: _361  and  _363
REMARK  152  A    between atoms: _363  and  _364
REMARK  153  A    between atoms: _366  and  _368
REMARK  154  A    between atoms: _368  and  _369
REMARK  155  A    between atoms: _368  and  _371
REMARK  156  A    between atoms: _371  and  _372
REMARK  157  A    between atoms: _378  and  _380
REMARK  158  A    between atoms: _380  and  _381
REMARK  159  A    between atoms: _380  and  _383
REMARK  160  A    between atoms: _383  and  _384
REMARK  161  A    between atoms: _389  and  _390
REMARK                            x       y       z     vdW  Elec       q    Type
REMARK                         _______ _______ _______ _____ _____    ______ ____
ROOT
ATOM      1  O   HOH     1       9.384 -15.299  27.289  0.00  0.00    +0.000 OA
ENDROOT
TORSDOF 0
REMARK  Name = ../refined-set-2016/1ghy/1ghy_pocket.pdb
REMARK  161 active torsions:
REMARK  status: ('A' for Active; 'I' for Inactive)
REMARK    1  A    between atoms: _1  and  _5
REMARK    2  A    between atoms: _5  and  _6
REMARK    3  A    between atoms: _5  and  _8
REMARK    4  A    between atoms: _8  and  _9
REMARK    5  A    between atoms: _12  and  _14
REMARK    6  A    between atoms: _14  and  _15
REMARK    7  A    between atoms: _14  and  _17
REMARK    8  A    between atoms: _20  and  _22
REMARK    9  A    between atoms: _22  and  _23
REMARK   10  A    between atoms: _22  and  _25
REMARK   11  A    between atoms: _25  and  _26
REMARK   12  A    between atoms: _29  and  _31
REMARK   13  A    between atoms: _31  and  _32
REMARK   14  A    between atoms: _31  and  _34
REMARK   15  A    between atoms: _34  and  _35
REMARK   16  A    between atoms: _35  and  _53
REMARK   17  A    between atoms: _36  and  _38
REMARK   18  A    between atoms: _38  and  _39
REMARK   19  A    between atoms: _38  and  _41
REMARK   20  A    between atoms: _41  and  _42
REMARK   21  A    between atoms: _47  and  _49
REMARK   22  A    between atoms: _49  and  _50
REMARK   23  A    between atoms: _49  and  _52
REMARK   24  A    between atoms: _52  and  _53
REMARK   25  A    between atoms: _54  and  _56
REMARK   26  A    between atoms: _56  and  _57
REMARK   27  A    between atoms: _56  and  _59
REMARK   28  A    between atoms: _59  and  _60
REMARK   29  A    between atoms: _65  and  _66
REMARK   30  A    between atoms: _69  and  _70
REMARK   31  A    between atoms: _75  and  _77
REMARK   32  A    between atoms: _77  and  _78
REMARK   33  A    between atoms: _77  and  _80
REMARK   34  A    between atoms: _80  and  _81
REMARK   35  A    between atoms: _91  and  _93
REMARK   36  A    between atoms: _93  and  _94
REMARK   37  A    between atoms: _93  and  _96
REMARK   38  A    between atoms: _96  and  _97
REMARK   39  A    between atoms: _97  and  _98
REMARK   40  A    between atoms: _98  and  _99
REMARK   41  A    between atoms: _99  and  _100
REMARK   42  A    between atoms: _104  and  _106
REMARK   43  A    between atoms: _106  and  _107
REMARK   44  A    between atoms: _106  and  _109
REMARK   45  A    between atoms: _109  and  _110
REMARK   46  A    between atoms: _115  and  _116
REMARK   47  A    between atoms: _118  and  _120
REMARK   48  A    between atoms: _120  and  _121
REMARK   49  A    between atoms: _120  and  _123
REMARK   50  A    between atoms: _123  and  _124
REMARK   51  A    between atoms: _127  and  _129
REMARK   52  A    between atoms: _129  and  _130
REMARK   53  A    between atoms: _129  and  _132
REMARK   54  A    between atoms: _132  and  _133
REMARK   55  A    between atoms: _136  and  _138
REMARK   56  A    between atoms: _138  and  _139
REMARK   57  A    between atoms: _138  and  _141
REMARK   58  A    between atoms: _144  and  _146
REMARK   59  A    between atoms: _146  and  _147
REMARK   60  A    between atoms: _146  and  _149
REMARK   61  A    between atoms: _149  and  _150
REMARK   62  A    between atoms: _155  and  _157
REMARK   63  A    between atoms: _157  and  _158
REMARK   64  A    between atoms: _157  and  _160
REMARK   65  A    between atoms: _160  and  _161
REMARK   66  A    between atoms: _161  and  _162
REMARK   67  A    between atoms: _165  and  _167
REMARK   68  A    between atoms: _167  and  _168
REMARK   69  A    between atoms: _167  and  _170
REMARK   70  A    between atoms: _170  and  _171
REMARK   71  A    between atoms: _174  and  _176
REMARK   72  A    between atoms: _176  and  _177
REMARK   73  A    between atoms: _180  and  _182
REMARK   74  A    between atoms: _182  and  _183
REMARK   75  A    between atoms: _185  and  _187
REMARK   76  A    between atoms: _187  and  _188
REMARK   77  A    between atoms: _187  and  _190
REMARK   78  A    between atoms: _190  and  _191
REMARK   79  A    between atoms: _194  and  _196
REMARK   80  A    between atoms: _196  and  _197
REMARK   81  A    between atoms: _200  and  _202
REMARK   82  A    between atoms: _202  and  _203
REMARK   83  A    between atoms: _202  and  _205
REMARK   84  A    between atoms: _205  and  _206
REMARK   85  A    between atoms: _206  and  _307
REMARK   86  A    between atoms: _207  and  _209
REMARK   87  A    between atoms: _209  and  _210
REMARK   88  A    between atoms: _209  and  _212
REMARK   89  A    between atoms: _212  and  _213
REMARK   90  A    between atoms: _213  and  _214
REMARK   91  A    between atoms: _217  and  _219
REMARK   92  A    between atoms: _219  and  _220
REMARK   93  A    between atoms: _222  and  _224
REMARK   94  A    between atoms: _224  and  _225
REMARK   95  A    between atoms: _224  and  _227
REMARK   96  A    between atoms: _227  and  _228
REMARK   97  A    between atoms: _231  and  _233
REMARK   98  A    between atoms: _233  and  _234
REMARK   99  A    between atoms: _233  and  _236
REMARK  100  A    between atoms: _236  and  _237
REMARK  101  A    between atoms: _239  and  _241
REMARK  102  A    between atoms: _241  and  _242
REMARK  103  A    between atoms: _244  and  _246
REMARK  104  A    between atoms: _246  and  _247
REMARK  105  A    between atoms: _249  and  _251
REMARK  106  A    between atoms: _251  and  _252
REMARK  107  A    between atoms: _251  and  _254
REMARK  108  A    between atoms: _257  and  _259
REMARK  109  A    between atoms: _259  and  _260
REMARK  110  A    between atoms: _259  and  _262
REMARK  111  A    between atoms: _262  and  _263
REMARK  112  A    between atoms: _265  and  _267
REMARK  113  A    between atoms: _267  and  _268
REMARK  114  A    between atoms: _267  and  _270
REMARK  115  A    between atoms: _270  and  _271
REMARK  116  A    between atoms: _281  and  _283
REMARK  117  A    between atoms: _283  and  _284
REMARK  118  A    between atoms: _286  and  _288
REMARK  119  A    between atoms: _288  and  _289
REMARK  120  A    between atoms: _288  and  _291
REMARK  121  A    between atoms: _291  and  _292
REMARK  122  A    between atoms: _292  and  _293
REMARK  123  A    between atoms: _296  and  _298
REMARK  124  A    between atoms: _298  and  _299
REMARK  125  A    between atoms: _301  and  _303
REMARK  126  A    between atoms: _303  and  _304
REMARK  127  A    between atoms: _303  and  _306
REMARK  128  A    between atoms: _306  and  _307
REMARK  129  A    between atoms: _308  and  _310
REMARK  130  A    between atoms: _310  and  _311
REMARK  131  A    between atoms: _310  and  _313
REMARK  132  A    between atoms: _313  and  _314
REMARK  133  A    between atoms: _317  and  _319
REMARK  134  A    between atoms: _319  and  _320
REMARK  135  A    between atoms: _319  and  _322
REMARK  136  A    between atoms: _322  and  _323
REMARK  137  A    between atoms: _323  and  _324
REMARK  138  A    between atoms: _324  and  _325
REMARK  139  A    between atoms: _334  and  _336
REMARK  140  A    between atoms: _336  and  _337
REMARK  141  A    between atoms: _336  and  _339
REMARK  142  A    between atoms: _339  and  _340
REMARK  143  A    between atoms: _340  and  _341
REMARK  144  A    between atoms: _341  and  _342
REMARK  145  A    between atoms: _342  and  _343
REMARK  146  A    between atoms: _347  and  _349
REMARK  147  A    between atoms: _349  and  _350
REMARK  148  A    between atoms: _349  and  _352
REMARK  149  A    between atoms: _352  and  _353
REMARK  150  A    between atoms: _358  and  _359
REMARK  151  A    between atoms: _361  and  _363
REMARK  152  A    between atoms: _363  and  _364
REMARK  153  A    between atoms: _366  and  _368
REMARK  154  A    between atoms: _368  and  _369
REMARK  155  A    between atoms: _368  and  _371
REMARK  156  A    between atoms: _371  and  _372
REMARK  157  A    between atoms: _378  and  _380
REMARK  158  A    between atoms: _380  and  _381
REMARK  159  A    between atoms: _380  and  _383
REMARK  160  A    between atoms: _383  and  _384
REMARK  161  A    between atoms: _389  and  _390
REMARK                            x       y       z     vdW  Elec       q    Type
REMARK                         _______ _______ _______ _____ _____    ______ ____
ROOT
ATOM      1  O   HOH     1       6.621 -10.952  28.808  0.00  0.00    +0.000 OA
ENDROOT
TORSDOF 0
REMARK  Name = ../refined-set-2016/1ghy/1ghy_pocket.pdb
REMARK  161 active torsions:
REMARK  status: ('A' for Active; 'I' for Inactive)
REMARK    1  A    between atoms: _1  and  _5
REMARK    2  A    between atoms: _5  and  _6
REMARK    3  A    between atoms: _5  and  _8
REMARK    4  A    between atoms: _8  and  _9
REMARK    5  A    between atoms: _12  and  _14
REMARK    6  A    between atoms: _14  and  _15
REMARK    7  A    between atoms: _14  and  _17
REMARK    8  A    between atoms: _20  and  _22
REMARK    9  A    between atoms: _22  and  _23
REMARK   10  A    between atoms: _22  and  _25
REMARK   11  A    between atoms: _25  and  _26
REMARK   12  A    between atoms: _29  and  _31
REMARK   13  A    between atoms: _31  and  _32
REMARK   14  A    between atoms: _31  and  _34
REMARK   15  A    between atoms: _34  and  _35
REMARK   16  A    between atoms: _35  and  _53
REMARK   17  A    between atoms: _36  and  _38
REMARK   18  A    between atoms: _38  and  _39
REMARK   19  A    between atoms: _38  and  _41
REMARK   20  A    between atoms: _41  and  _42
REMARK   21  A    between atoms: _47  and  _49
REMARK   22  A    between atoms: _49  and  _50
REMARK   23  A    between atoms: _49  and  _52
REMARK   24  A    between atoms: _52  and  _53
REMARK   25  A    between atoms: _54  and  _56
REMARK   26  A    between atoms: _56  and  _57
REMARK   27  A    between atoms: _56  and  _59
REMARK   28  A    between atoms: _59  and  _60
REMARK   29  A    between atoms: _65  and  _66
REMARK   30  A    between atoms: _69  and  _70
REMARK   31  A    between atoms: _75  and  _77
REMARK   32  A    between atoms: _77  and  _78
REMARK   33  A    between atoms: _77  and  _80
REMARK   34  A    between atoms: _80  and  _81
REMARK   35  A    between atoms: _91  and  _93
REMARK   36  A    between atoms: _93  and  _94
REMARK   37  A    between atoms: _93  and  _96
REMARK   38  A    between atoms: _96  and  _97
REMARK   39  A    between atoms: _97  and  _98
REMARK   40  A    between atoms: _98  and  _99
REMARK   41  A    between atoms: _99  and  _100
REMARK   42  A    between atoms: _104  and  _106
REMARK   43  A    between atoms: _106  and  _107
REMARK   44  A    between atoms: _106  and  _109
REMARK   45  A    between atoms: _109  and  _110
REMARK   46  A    between atoms: _115  and  _116
REMARK   47  A    between atoms: _118  and  _120
REMARK   48  A    between atoms: _120  and  _121
REMARK   49  A    between atoms: _120  and  _123
REMARK   50  A    between atoms: _123  and  _124
REMARK   51  A    between atoms: _127  and  _129
REMARK   52  A    between atoms: _129  and  _130
REMARK   53  A    between atoms: _129  and  _132
REMARK   54  A    between atoms: _132  and  _133
REMARK   55  A    between atoms: _136  and  _138
REMARK   56  A    between atoms: _138  and  _139
REMARK   57  A    between atoms: _138  and  _141
REMARK   58  A    between atoms: _144  and  _146
REMARK   59  A    between atoms: _146  and  _147
REMARK   60  A    between atoms: _146  and  _149
REMARK   61  A    between atoms: _149  and  _150
REMARK   62  A    between atoms: _155  and  _157
REMARK   63  A    between atoms: _157  and  _158
REMARK   64  A    between atoms: _157  and  _160
REMARK   65  A    between atoms: _160  and  _161
REMARK   66  A    between atoms: _161  and  _162
REMARK   67  A    between atoms: _165  and  _167
REMARK   68  A    between atoms: _167  and  _168
REMARK   69  A    between atoms: _167  and  _170
REMARK   70  A    between atoms: _170  and  _171
REMARK   71  A    between atoms: _174  and  _176
REMARK   72  A    between atoms: _176  and  _177
REMARK   73  A    between atoms: _180  and  _182
REMARK   74  A    between atoms: _182  and  _183
REMARK   75  A    between atoms: _185  and  _187
REMARK   76  A    between atoms: _187  and  _188
REMARK   77  A    between atoms: _187  and  _190
REMARK   78  A    between atoms: _190  and  _191
REMARK   79  A    between atoms: _194  and  _196
REMARK   80  A    between atoms: _196  and  _197
REMARK   81  A    between atoms: _200  and  _202
REMARK   82  A    between atoms: _202  and  _203
REMARK   83  A    between atoms: _202  and  _205
REMARK   84  A    between atoms: _205  and  _206
REMARK   85  A    between atoms: _206  and  _307
REMARK   86  A    between atoms: _207  and  _209
REMARK   87  A    between atoms: _209  and  _210
REMARK   88  A    between atoms: _209  and  _212
REMARK   89  A    between atoms: _212  and  _213
REMARK   90  A    between atoms: _213  and  _214
REMARK   91  A    between atoms: _217  and  _219
REMARK   92  A    between atoms: _219  and  _220
REMARK   93  A    between atoms: _222  and  _224
REMARK   94  A    between atoms: _224  and  _225
REMARK   95  A    between atoms: _224  and  _227
REMARK   96  A    between atoms: _227  and  _228
REMARK   97  A    between atoms: _231  and  _233
REMARK   98  A    between atoms: _233  and  _234
REMARK   99  A    between atoms: _233  and  _236
REMARK  100  A    between atoms: _236  and  _237
REMARK  101  A    between atoms: _239  and  _241
REMARK  102  A    between atoms: _241  and  _242
REMARK  103  A    between atoms: _244  and  _246
REMARK  104  A    between atoms: _246  and  _247
REMARK  105  A    between atoms: _249  and  _251
REMARK  106  A    between atoms: _251  and  _252
REMARK  107  A    between atoms: _251  and  _254
REMARK  108  A    between atoms: _257  and  _259
REMARK  109  A    between atoms: _259  and  _260
REMARK  110  A    between atoms: _259  and  _262
REMARK  111  A    between atoms: _262  and  _263
REMARK  112  A    between atoms: _265  and  _267
REMARK  113  A    between atoms: _267  and  _268
REMARK  114  A    between atoms: _267  and  _270
REMARK  115  A    between atoms: _270  and  _271
REMARK  116  A    between atoms: _281  and  _283
REMARK  117  A    between atoms: _283  and  _284
REMARK  118  A    between atoms: _286  and  _288
REMARK  119  A    between atoms: _288  and  _289
REMARK  120  A    between atoms: _288  and  _291
REMARK  121  A    between atoms: _291  and  _292
REMARK  122  A    between atoms: _292  and  _293
REMARK  123  A    between atoms: _296  and  _298
REMARK  124  A    between atoms: _298  and  _299
REMARK  125  A    between atoms: _301  and  _303
REMARK  126  A    between atoms: _303  and  _304
REMARK  127  A    between atoms: _303  and  _306
REMARK  128  A    between atoms: _306  and  _307
REMARK  129  A    between atoms: _308  and  _310
REMARK  130  A    between atoms: _310  and  _311
REMARK  131  A    between atoms: _310  and  _313
REMARK  132  A    between atoms: _313  and  _314
REMARK  133  A    between atoms: _317  and  _319
REMARK  134  A    between atoms: _319  and  _320
REMARK  135  A    between atoms: _319  and  _322
REMARK  136  A    between atoms: _322  and  _323
REMARK  137  A    between atoms: _323  and  _324
REMARK  138  A    between atoms: _324  and  _325
REMARK  139  A    between atoms: _334  and  _336
REMARK  140  A    between atoms: _336  and  _337
REMARK  141  A    between atoms: _336  and  _339
REMARK  142  A    between atoms: _339  and  _340
REMARK  143  A    between atoms: _340  and  _341
REMARK  144  A    between atoms: _341  and  _342
REMARK  145  A    between atoms: _342  and  _343
REMARK  146  A    between atoms: _347  and  _349
REMARK  147  A    between atoms: _349  and  _350
REMARK  148  A    between atoms: _349  and  _352
REMARK  149  A    between atoms: _352  and  _353
REMARK  150  A    between atoms: _358  and  _359
REMARK  151  A    between atoms: _361  and  _363
REMARK  152  A    between atoms: _363  and  _364
REMARK  153  A    between atoms: _366  and  _368
REMARK  154  A    between atoms: _368  and  _369
REMARK  155  A    between atoms: _368  and  _371
REMARK  156  A    between atoms: _371  and  _372
REMARK  157  A    between atoms: _378  and  _380
REMARK  158  A    between atoms: _380  and  _381
REMARK  159  A    between atoms: _380  and  _383
REMARK  160  A    between atoms: _383  and  _384
REMARK  161  A    between atoms: _389  and  _390
REMARK                            x       y       z     vdW  Elec       q    Type
REMARK                         _______ _______ _______ _____ _____    ______ ____
ROOT
ATOM      1  O   HOH     1       7.545 -13.836  28.678  0.00  0.00    +0.000 OA
ENDROOT
TORSDOF 0
REMARK  Name = ../refined-set-2016/1ghy/1ghy_pocket.pdb
REMARK  161 active torsions:
REMARK  status: ('A' for Active; 'I' for Inactive)
REMARK    1  A    between atoms: _1  and  _5
REMARK    2  A    between atoms: _5  and  _6
REMARK    3  A    between atoms: _5  and  _8
REMARK    4  A    between atoms: _8  and  _9
REMARK    5  A    between atoms: _12  and  _14
REMARK    6  A    between atoms: _14  and  _15
REMARK    7  A    between atoms: _14  and  _17
REMARK    8  A    between atoms: _20  and  _22
REMARK    9  A    between atoms: _22  and  _23
REMARK   10  A    between atoms: _22  and  _25
REMARK   11  A    between atoms: _25  and  _26
REMARK   12  A    between atoms: _29  and  _31
REMARK   13  A    between atoms: _31  and  _32
REMARK   14  A    between atoms: _31  and  _34
REMARK   15  A    between atoms: _34  and  _35
REMARK   16  A    between atoms: _35  and  _53
REMARK   17  A    between atoms: _36  and  _38
REMARK   18  A    between atoms: _38  and  _39
REMARK   19  A    between atoms: _38  and  _41
REMARK   20  A    between atoms: _41  and  _42
REMARK   21  A    between atoms: _47  and  _49
REMARK   22  A    between atoms: _49  and  _50
REMARK   23  A    between atoms: _49  and  _52
REMARK   24  A    between atoms: _52  and  _53
REMARK   25  A    between atoms: _54  and  _56
REMARK   26  A    between atoms: _56  and  _57
REMARK   27  A    between atoms: _56  and  _59
REMARK   28  A    between atoms: _59  and  _60
REMARK   29  A    between atoms: _65  and  _66
REMARK   30  A    between atoms: _69  and  _70
REMARK   31  A    between atoms: _75  and  _77
REMARK   32  A    between atoms: _77  and  _78
REMARK   33  A    between atoms: _77  and  _80
REMARK   34  A    between atoms: _80  and  _81
REMARK   35  A    between atoms: _91  and  _93
REMARK   36  A    between atoms: _93  and  _94
REMARK   37  A    between atoms: _93  and  _96
REMARK   38  A    between atoms: _96  and  _97
REMARK   39  A    between atoms: _97  and  _98
REMARK   40  A    between atoms: _98  and  _99
REMARK   41  A    between atoms: _99  and  _100
REMARK   42  A    between atoms: _104  and  _106
REMARK   43  A    between atoms: _106  and  _107
REMARK   44  A    between atoms: _106  and  _109
REMARK   45  A    between atoms: _109  and  _110
REMARK   46  A    between atoms: _115  and  _116
REMARK   47  A    between atoms: _118  and  _120
REMARK   48  A    between atoms: _120  and  _121
REMARK   49  A    between atoms: _120  and  _123
REMARK   50  A    between atoms: _123  and  _124
REMARK   51  A    between atoms: _127  and  _129
REMARK   52  A    between atoms: _129  and  _130
REMARK   53  A    between atoms: _129  and  _132
REMARK   54  A    between atoms: _132  and  _133
REMARK   55  A    between atoms: _136  and  _138
REMARK   56  A    between atoms: _138  and  _139
REMARK   57  A    between atoms: _138  and  _141
REMARK   58  A    between atoms: _144  and  _146
REMARK   59  A    between atoms: _146  and  _147
REMARK   60  A    between atoms: _146  and  _149
REMARK   61  A    between atoms: _149  and  _150
REMARK   62  A    between atoms: _155  and  _157
REMARK   63  A    between atoms: _157  and  _158
REMARK   64  A    between atoms: _157  and  _160
REMARK   65  A    between atoms: _160  and  _161
REMARK   66  A    between atoms: _161  and  _162
REMARK   67  A    between atoms: _165  and  _167
REMARK   68  A    between atoms: _167  and  _168
REMARK   69  A    between atoms: _167  and  _170
REMARK   70  A    between atoms: _170  and  _171
REMARK   71  A    between atoms: _174  and  _176
REMARK   72  A    between atoms: _176  and  _177
REMARK   73  A    between atoms: _180  and  _182
REMARK   74  A    between atoms: _182  and  _183
REMARK   75  A    between atoms: _185  and  _187
REMARK   76  A    between atoms: _187  and  _188
REMARK   77  A    between atoms: _187  and  _190
REMARK   78  A    between atoms: _190  and  _191
REMARK   79  A    between atoms: _194  and  _196
REMARK   80  A    between atoms: _196  and  _197
REMARK   81  A    between atoms: _200  and  _202
REMARK   82  A    between atoms: _202  and  _203
REMARK   83  A    between atoms: _202  and  _205
REMARK   84  A    between atoms: _205  and  _206
REMARK   85  A    between atoms: _206  and  _307
REMARK   86  A    between atoms: _207  and  _209
REMARK   87  A    between atoms: _209  and  _210
REMARK   88  A    between atoms: _209  and  _212
REMARK   89  A    between atoms: _212  and  _213
REMARK   90  A    between atoms: _213  and  _214
REMARK   91  A    between atoms: _217  and  _219
REMARK   92  A    between atoms: _219  and  _220
REMARK   93  A    between atoms: _222  and  _224
REMARK   94  A    between atoms: _224  and  _225
REMARK   95  A    between atoms: _224  and  _227
REMARK   96  A    between atoms: _227  and  _228
REMARK   97  A    between atoms: _231  and  _233
REMARK   98  A    between atoms: _233  and  _234
REMARK   99  A    between atoms: _233  and  _236
REMARK  100  A    between atoms: _236  and  _237
REMARK  101  A    between atoms: _239  and  _241
REMARK  102  A    between atoms: _241  and  _242
REMARK  103  A    between atoms: _244  and  _246
REMARK  104  A    between atoms: _246  and  _247
REMARK  105  A    between atoms: _249  and  _251
REMARK  106  A    between atoms: _251  and  _252
REMARK  107  A    between atoms: _251  and  _254
REMARK  108  A    between atoms: _257  and  _259
REMARK  109  A    between atoms: _259  and  _260
REMARK  110  A    between atoms: _259  and  _262
REMARK  111  A    between atoms: _262  and  _263
REMARK  112  A    between atoms: _265  and  _267
REMARK  113  A    between atoms: _267  and  _268
REMARK  114  A    between atoms: _267  and  _270
REMARK  115  A    between atoms: _270  and  _271
REMARK  116  A    between atoms: _281  and  _283
REMARK  117  A    between atoms: _283  and  _284
REMARK  118  A    between atoms: _286  and  _288
REMARK  119  A    between atoms: _288  and  _289
REMARK  120  A    between atoms: _288  and  _291
REMARK  121  A    between atoms: _291  and  _292
REMARK  122  A    between atoms: _292  and  _293
REMARK  123  A    between atoms: _296  and  _298
REMARK  124  A    between atoms: _298  and  _299
REMARK  125  A    between atoms: _301  and  _303
REMARK  126  A    between atoms: _303  and  _304
REMARK  127  A    between atoms: _303  and  _306
REMARK  128  A    between atoms: _306  and  _307
REMARK  129  A    between atoms: _308  and  _310
REMARK  130  A    between atoms: _310  and  _311
REMARK  131  A    between atoms: _310  and  _313
REMARK  132  A    between atoms: _313  and  _314
REMARK  133  A    between atoms: _317  and  _319
REMARK  134  A    between atoms: _319  and  _320
REMARK  135  A    between atoms: _319  and  _322
REMARK  136  A    between atoms: _322  and  _323
REMARK  137  A    between atoms: _323  and  _324
REMARK  138  A    between atoms: _324  and  _325
REMARK  139  A    between atoms: _334  and  _336
REMARK  140  A    between atoms: _336  and  _337
REMARK  141  A    between atoms: _336  and  _339
REMARK  142  A    between atoms: _339  and  _340
REMARK  143  A    between atoms: _340  and  _341
REMARK  144  A    between atoms: _341  and  _342
REMARK  145  A    between atoms: _342  and  _343
REMARK  146  A    between atoms: _347  and  _349
REMARK  147  A    between atoms: _349  and  _350
REMARK  148  A    between atoms: _349  and  _352
REMARK  149  A    between atoms: _352  and  _353
REMARK  150  A    between atoms: _358  and  _359
REMARK  151  A    between atoms: _361  and  _363
REMARK  152  A    between atoms: _363  and  _364
REMARK  153  A    between atoms: _366  and  _368
REMARK  154  A    between atoms: _368  and  _369
REMARK  155  A    between atoms: _368  and  _371
REMARK  156  A    between atoms: _371  and  _372
REMARK  157  A    between atoms: _378  and  _380
REMARK  158  A    between atoms: _380  and  _381
REMARK  159  A    between atoms: _380  and  _383
REMARK  160  A    between atoms: _383  and  _384
REMARK  161  A    between atoms: _389  and  _390
REMARK                            x       y       z     vdW  Elec       q    Type
REMARK                         _______ _______ _______ _____ _____    ______ ____
ROOT
ATOM      1  O   HOH     1      25.348 -15.776  23.054  0.00  0.00    +0.000 OA
ENDROOT
TORSDOF 0
REMARK  Name = ../refined-set-2016/1ghy/1ghy_pocket.pdb
REMARK  161 active torsions:
REMARK  status: ('A' for Active; 'I' for Inactive)
REMARK    1  A    between atoms: _1  and  _5
REMARK    2  A    between atoms: _5  and  _6
REMARK    3  A    between atoms: _5  and  _8
REMARK    4  A    between atoms: _8  and  _9
REMARK    5  A    between atoms: _12  and  _14
REMARK    6  A    between atoms: _14  and  _15
REMARK    7  A    between atoms: _14  and  _17
REMARK    8  A    between atoms: _20  and  _22
REMARK    9  A    between atoms: _22  and  _23
REMARK   10  A    between atoms: _22  and  _25
REMARK   11  A    between atoms: _25  and  _26
REMARK   12  A    between atoms: _29  and  _31
REMARK   13  A    between atoms: _31  and  _32
REMARK   14  A    between atoms: _31  and  _34
REMARK   15  A    between atoms: _34  and  _35
REMARK   16  A    between atoms: _35  and  _53
REMARK   17  A    between atoms: _36  and  _38
REMARK   18  A    between atoms: _38  and  _39
REMARK   19  A    between atoms: _38  and  _41
REMARK   20  A    between atoms: _41  and  _42
REMARK   21  A    between atoms: _47  and  _49
REMARK   22  A    between atoms: _49  and  _50
REMARK   23  A    between atoms: _49  and  _52
REMARK   24  A    between atoms: _52  and  _53
REMARK   25  A    between atoms: _54  and  _56
REMARK   26  A    between atoms: _56  and  _57
REMARK   27  A    between atoms: _56  and  _59
REMARK   28  A    between atoms: _59  and  _60
REMARK   29  A    between atoms: _65  and  _66
REMARK   30  A    between atoms: _69  and  _70
REMARK   31  A    between atoms: _75  and  _77
REMARK   32  A    between atoms: _77  and  _78
REMARK   33  A    between atoms: _77  and  _80
REMARK   34  A    between atoms: _80  and  _81
REMARK   35  A    between atoms: _91  and  _93
REMARK   36  A    between atoms: _93  and  _94
REMARK   37  A    between atoms: _93  and  _96
REMARK   38  A    between atoms: _96  and  _97
REMARK   39  A    between atoms: _97  and  _98
REMARK   40  A    between atoms: _98  and  _99
REMARK   41  A    between atoms: _99  and  _100
REMARK   42  A    between atoms: _104  and  _106
REMARK   43  A    between atoms: _106  and  _107
REMARK   44  A    between atoms: _106  and  _109
REMARK   45  A    between atoms: _109  and  _110
REMARK   46  A    between atoms: _115  and  _116
REMARK   47  A    between atoms: _118  and  _120
REMARK   48  A    between atoms: _120  and  _121
REMARK   49  A    between atoms: _120  and  _123
REMARK   50  A    between atoms: _123  and  _124
REMARK   51  A    between atoms: _127  and  _129
REMARK   52  A    between atoms: _129  and  _130
REMARK   53  A    between atoms: _129  and  _132
REMARK   54  A    between atoms: _132  and  _133
REMARK   55  A    between atoms: _136  and  _138
REMARK   56  A    between atoms: _138  and  _139
REMARK   57  A    between atoms: _138  and  _141
REMARK   58  A    between atoms: _144  and  _146
REMARK   59  A    between atoms: _146  and  _147
REMARK   60  A    between atoms: _146  and  _149
REMARK   61  A    between atoms: _149  and  _150
REMARK   62  A    between atoms: _155  and  _157
REMARK   63  A    between atoms: _157  and  _158
REMARK   64  A    between atoms: _157  and  _160
REMARK   65  A    between atoms: _160  and  _161
REMARK   66  A    between atoms: _161  and  _162
REMARK   67  A    between atoms: _165  and  _167
REMARK   68  A    between atoms: _167  and  _168
REMARK   69  A    between atoms: _167  and  _170
REMARK   70  A    between atoms: _170  and  _171
REMARK   71  A    between atoms: _174  and  _176
REMARK   72  A    between atoms: _176  and  _177
REMARK   73  A    between atoms: _180  and  _182
REMARK   74  A    between atoms: _182  and  _183
REMARK   75  A    between atoms: _185  and  _187
REMARK   76  A    between atoms: _187  and  _188
REMARK   77  A    between atoms: _187  and  _190
REMARK   78  A    between atoms: _190  and  _191
REMARK   79  A    between atoms: _194  and  _196
REMARK   80  A    between atoms: _196  and  _197
REMARK   81  A    between atoms: _200  and  _202
REMARK   82  A    between atoms: _202  and  _203
REMARK   83  A    between atoms: _202  and  _205
REMARK   84  A    between atoms: _205  and  _206
REMARK   85  A    between atoms: _206  and  _307
REMARK   86  A    between atoms: _207  and  _209
REMARK   87  A    between atoms: _209  and  _210
REMARK   88  A    between atoms: _209  and  _212
REMARK   89  A    between atoms: _212  and  _213
REMARK   90  A    between atoms: _213  and  _214
REMARK   91  A    between atoms: _217  and  _219
REMARK   92  A    between atoms: _219  and  _220
REMARK   93  A    between atoms: _222  and  _224
REMARK   94  A    between atoms: _224  and  _225
REMARK   95  A    between atoms: _224  and  _227
REMARK   96  A    between atoms: _227  and  _228
REMARK   97  A    between atoms: _231  and  _233
REMARK   98  A    between atoms: _233  and  _234
REMARK   99  A    between atoms: _233  and  _236
REMARK  100  A    between atoms: _236  and  _237
REMARK  101  A    between atoms: _239  and  _241
REMARK  102  A    between atoms: _241  and  _242
REMARK  103  A    between atoms: _244  and  _246
REMARK  104  A    between atoms: _246  and  _247
REMARK  105  A    between atoms: _249  and  _251
REMARK  106  A    between atoms: _251  and  _252
REMARK  107  A    between atoms: _251  and  _254
REMARK  108  A    between atoms: _257  and  _259
REMARK  109  A    between atoms: _259  and  _260
REMARK  110  A    between atoms: _259  and  _262
REMARK  111  A    between atoms: _262  and  _263
REMARK  112  A    between atoms: _265  and  _267
REMARK  113  A    between atoms: _267  and  _268
REMARK  114  A    between atoms: _267  and  _270
REMARK  115  A    between atoms: _270  and  _271
REMARK  116  A    between atoms: _281  and  _283
REMARK  117  A    between atoms: _283  and  _284
REMARK  118  A    between atoms: _286  and  _288
REMARK  119  A    between atoms: _288  and  _289
REMARK  120  A    between atoms: _288  and  _291
REMARK  121  A    between atoms: _291  and  _292
REMARK  122  A    between atoms: _292  and  _293
REMARK  123  A    between atoms: _296  and  _298
REMARK  124  A    between atoms: _298  and  _299
REMARK  125  A    between atoms: _301  and  _303
REMARK  126  A    between atoms: _303  and  _304
REMARK  127  A    between atoms: _303  and  _306
REMARK  128  A    between atoms: _306  and  _307
REMARK  129  A    between atoms: _308  and  _310
REMARK  130  A    between atoms: _310  and  _311
REMARK  131  A    between atoms: _310  and  _313
REMARK  132  A    between atoms: _313  and  _314
REMARK  133  A    between atoms: _317  and  _319
REMARK  134  A    between atoms: _319  and  _320
REMARK  135  A    between atoms: _319  and  _322
REMARK  136  A    between atoms: _322  and  _323
REMARK  137  A    between atoms: _323  and  _324
REMARK  138  A    between atoms: _324  and  _325
REMARK  139  A    between atoms: _334  and  _336
REMARK  140  A    between atoms: _336  and  _337
REMARK  141  A    between atoms: _336  and  _339
REMARK  142  A    between atoms: _339  and  _340
REMARK  143  A    between atoms: _340  and  _341
REMARK  144  A    between atoms: _341  and  _342
REMARK  145  A    between atoms: _342  and  _343
REMARK  146  A    between atoms: _347  and  _349
REMARK  147  A    between atoms: _349  and  _350
REMARK  148  A    between atoms: _349  and  _352
REMARK  149  A    between atoms: _352  and  _353
REMARK  150  A    between atoms: _358  and  _359
REMARK  151  A    between atoms: _361  and  _363
REMARK  152  A    between atoms: _363  and  _364
REMARK  153  A    between atoms: _366  and  _368
REMARK  154  A    between atoms: _368  and  _369
REMARK  155  A    between atoms: _368  and  _371
REMARK  156  A    between atoms: _371  and  _372
REMARK  157  A    between atoms: _378  and  _380
REMARK  158  A    between atoms: _380  and  _381
REMARK  159  A    between atoms: _380  and  _383
REMARK  160  A    between atoms: _383  and  _384
REMARK  161  A    between atoms: _389  and  _390
REMARK                            x       y       z     vdW  Elec       q    Type
REMARK                         _______ _______ _______ _____ _____    ______ ____
ROOT
ATOM      1  O   HOH     1      14.824 -10.449  16.775  0.00  0.00    +0.000 OA
ENDROOT
TORSDOF 0
REMARK  Name = ../refined-set-2016/1ghy/1ghy_pocket.pdb
REMARK  161 active torsions:
REMARK  status: ('A' for Active; 'I' for Inactive)
REMARK    1  A    between atoms: _1  and  _5
REMARK    2  A    between atoms: _5  and  _6
REMARK    3  A    between atoms: _5  and  _8
REMARK    4  A    between atoms: _8  and  _9
REMARK    5  A    between atoms: _12  and  _14
REMARK    6  A    between atoms: _14  and  _15
REMARK    7  A    between atoms: _14  and  _17
REMARK    8  A    between atoms: _20  and  _22
REMARK    9  A    between atoms: _22  and  _23
REMARK   10  A    between atoms: _22  and  _25
REMARK   11  A    between atoms: _25  and  _26
REMARK   12  A    between atoms: _29  and  _31
REMARK   13  A    between atoms: _31  and  _32
REMARK   14  A    between atoms: _31  and  _34
REMARK   15  A    between atoms: _34  and  _35
REMARK   16  A    between atoms: _35  and  _53
REMARK   17  A    between atoms: _36  and  _38
REMARK   18  A    between atoms: _38  and  _39
REMARK   19  A    between atoms: _38  and  _41
REMARK   20  A    between atoms: _41  and  _42
REMARK   21  A    between atoms: _47  and  _49
REMARK   22  A    between atoms: _49  and  _50
REMARK   23  A    between atoms: _49  and  _52
REMARK   24  A    between atoms: _52  and  _53
REMARK   25  A    between atoms: _54  and  _56
REMARK   26  A    between atoms: _56  and  _57
REMARK   27  A    between atoms: _56  and  _59
REMARK   28  A    between atoms: _59  and  _60
REMARK   29  A    between atoms: _65  and  _66
REMARK   30  A    between atoms: _69  and  _70
REMARK   31  A    between atoms: _75  and  _77
REMARK   32  A    between atoms: _77  and  _78
REMARK   33  A    between atoms: _77  and  _80
REMARK   34  A    between atoms: _80  and  _81
REMARK   35  A    between atoms: _91  and  _93
REMARK   36  A    between atoms: _93  and  _94
REMARK   37  A    between atoms: _93  and  _96
REMARK   38  A    between atoms: _96  and  _97
REMARK   39  A    between atoms: _97  and  _98
REMARK   40  A    between atoms: _98  and  _99
REMARK   41  A    between atoms: _99  and  _100
REMARK   42  A    between atoms: _104  and  _106
REMARK   43  A    between atoms: _106  and  _107
REMARK   44  A    between atoms: _106  and  _109
REMARK   45  A    between atoms: _109  and  _110
REMARK   46  A    between atoms: _115  and  _116
REMARK   47  A    between atoms: _118  and  _120
REMARK   48  A    between atoms: _120  and  _121
REMARK   49  A    between atoms: _120  and  _123
REMARK   50  A    between atoms: _123  and  _124
REMARK   51  A    between atoms: _127  and  _129
REMARK   52  A    between atoms: _129  and  _130
REMARK   53  A    between atoms: _129  and  _132
REMARK   54  A    between atoms: _132  and  _133
REMARK   55  A    between atoms: _136  and  _138
REMARK   56  A    between atoms: _138  and  _139
REMARK   57  A    between atoms: _138  and  _141
REMARK   58  A    between atoms: _144  and  _146
REMARK   59  A    between atoms: _146  and  _147
REMARK   60  A    between atoms: _146  and  _149
REMARK   61  A    between atoms: _149  and  _150
REMARK   62  A    between atoms: _155  and  _157
REMARK   63  A    between atoms: _157  and  _158
REMARK   64  A    between atoms: _157  and  _160
REMARK   65  A    between atoms: _160  and  _161
REMARK   66  A    between atoms: _161  and  _162
REMARK   67  A    between atoms: _165  and  _167
REMARK   68  A    between atoms: _167  and  _168
REMARK   69  A    between atoms: _167  and  _170
REMARK   70  A    between atoms: _170  and  _171
REMARK   71  A    between atoms: _174  and  _176
REMARK   72  A    between atoms: _176  and  _177
REMARK   73  A    between atoms: _180  and  _182
REMARK   74  A    between atoms: _182  and  _183
REMARK   75  A    between atoms: _185  and  _187
REMARK   76  A    between atoms: _187  and  _188
REMARK   77  A    between atoms: _187  and  _190
REMARK   78  A    between atoms: _190  and  _191
REMARK   79  A    between atoms: _194  and  _196
REMARK   80  A    between atoms: _196  and  _197
REMARK   81  A    between atoms: _200  and  _202
REMARK   82  A    between atoms: _202  and  _203
REMARK   83  A    between atoms: _202  and  _205
REMARK   84  A    between atoms: _205  and  _206
REMARK   85  A    between atoms: _206  and  _307
REMARK   86  A    between atoms: _207  and  _209
REMARK   87  A    between atoms: _209  and  _210
REMARK   88  A    between atoms: _209  and  _212
REMARK   89  A    between atoms: _212  and  _213
REMARK   90  A    between atoms: _213  and  _214
REMARK   91  A    between atoms: _217  and  _219
REMARK   92  A    between atoms: _219  and  _220
REMARK   93  A    between atoms: _222  and  _224
REMARK   94  A    between atoms: _224  and  _225
REMARK   95  A    between atoms: _224  and  _227
REMARK   96  A    between atoms: _227  and  _228
REMARK   97  A    between atoms: _231  and  _233
REMARK   98  A    between atoms: _233  and  _234
REMARK   99  A    between atoms: _233  and  _236
REMARK  100  A    between atoms: _236  and  _237
REMARK  101  A    between atoms: _239  and  _241
REMARK  102  A    between atoms: _241  and  _242
REMARK  103  A    between atoms: _244  and  _246
REMARK  104  A    between atoms: _246  and  _247
REMARK  105  A    between atoms: _249  and  _251
REMARK  106  A    between atoms: _251  and  _252
REMARK  107  A    between atoms: _251  and  _254
REMARK  108  A    between atoms: _257  and  _259
REMARK  109  A    between atoms: _259  and  _260
REMARK  110  A    between atoms: _259  and  _262
REMARK  111  A    between atoms: _262  and  _263
REMARK  112  A    between atoms: _265  and  _267
REMARK  113  A    between atoms: _267  and  _268
REMARK  114  A    between atoms: _267  and  _270
REMARK  115  A    between atoms: _270  and  _271
REMARK  116  A    between atoms: _281  and  _283
REMARK  117  A    between atoms: _283  and  _284
REMARK  118  A    between atoms: _286  and  _288
REMARK  119  A    between atoms: _288  and  _289
REMARK  120  A    between atoms: _288  and  _291
REMARK  121  A    between atoms: _291  and  _292
REMARK  122  A    between atoms: _292  and  _293
REMARK  123  A    between atoms: _296  and  _298
REMARK  124  A    between atoms: _298  and  _299
REMARK  125  A    between atoms: _301  and  _303
REMARK  126  A    between atoms: _303  and  _304
REMARK  127  A    between atoms: _303  and  _306
REMARK  128  A    between atoms: _306  and  _307
REMARK  129  A    between atoms: _308  and  _310
REMARK  130  A    between atoms: _310  and  _311
REMARK  131  A    between atoms: _310  and  _313
REMARK  132  A    between atoms: _313  and  _314
REMARK  133  A    between atoms: _317  and  _319
REMARK  134  A    between atoms: _319  and  _320
REMARK  135  A    between atoms: _319  and  _322
REMARK  136  A    between atoms: _322  and  _323
REMARK  137  A    between atoms: _323  and  _324
REMARK  138  A    between atoms: _324  and  _325
REMARK  139  A    between atoms: _334  and  _336
REMARK  140  A    between atoms: _336  and  _337
REMARK  141  A    between atoms: _336  and  _339
REMARK  142  A    between atoms: _339  and  _340
REMARK  143  A    between atoms: _340  and  _341
REMARK  144  A    between atoms: _341  and  _342
REMARK  145  A    between atoms: _342  and  _343
REMARK  146  A    between atoms: _347  and  _349
REMARK  147  A    between atoms: _349  and  _350
REMARK  148  A    between atoms: _349  and  _352
REMARK  149  A    between atoms: _352  and  _353
REMARK  150  A    between atoms: _358  and  _359
REMARK  151  A    between atoms: _361  and  _363
REMARK  152  A    between atoms: _363  and  _364
REMARK  153  A    between atoms: _366  and  _368
REMARK  154  A    between atoms: _368  and  _369
REMARK  155  A    between atoms: _368  and  _371
REMARK  156  A    between atoms: _371  and  _372
REMARK  157  A    between atoms: _378  and  _380
REMARK  158  A    between atoms: _380  and  _381
REMARK  159  A    between atoms: _380  and  _383
REMARK  160  A    between atoms: _383  and  _384
REMARK  161  A    between atoms: _389  and  _390
REMARK                            x       y       z     vdW  Elec       q    Type
REMARK                         _______ _______ _______ _____ _____    ______ ____
ROOT
ATOM      1  O   HOH     1      16.510 -20.832  18.478  0.00  0.00    +0.000 OA
ENDROOT
TORSDOF 0
REMARK  Name = ../refined-set-2016/1ghy/1ghy_pocket.pdb
REMARK  161 active torsions:
REMARK  status: ('A' for Active; 'I' for Inactive)
REMARK    1  A    between atoms: _1  and  _5
REMARK    2  A    between atoms: _5  and  _6
REMARK    3  A    between atoms: _5  and  _8
REMARK    4  A    between atoms: _8  and  _9
REMARK    5  A    between atoms: _12  and  _14
REMARK    6  A    between atoms: _14  and  _15
REMARK    7  A    between atoms: _14  and  _17
REMARK    8  A    between atoms: _20  and  _22
REMARK    9  A    between atoms: _22  and  _23
REMARK   10  A    between atoms: _22  and  _25
REMARK   11  A    between atoms: _25  and  _26
REMARK   12  A    between atoms: _29  and  _31
REMARK   13  A    between atoms: _31  and  _32
REMARK   14  A    between atoms: _31  and  _34
REMARK   15  A    between atoms: _34  and  _35
REMARK   16  A    between atoms: _35  and  _53
REMARK   17  A    between atoms: _36  and  _38
REMARK   18  A    between atoms: _38  and  _39
REMARK   19  A    between atoms: _38  and  _41
REMARK   20  A    between atoms: _41  and  _42
REMARK   21  A    between atoms: _47  and  _49
REMARK   22  A    between atoms: _49  and  _50
REMARK   23  A    between atoms: _49  and  _52
REMARK   24  A    between atoms: _52  and  _53
REMARK   25  A    between atoms: _54  and  _56
REMARK   26  A    between atoms: _56  and  _57
REMARK   27  A    between atoms: _56  and  _59
REMARK   28  A    between atoms: _59  and  _60
REMARK   29  A    between atoms: _65  and  _66
REMARK   30  A    between atoms: _69  and  _70
REMARK   31  A    between atoms: _75  and  _77
REMARK   32  A    between atoms: _77  and  _78
REMARK   33  A    between atoms: _77  and  _80
REMARK   34  A    between atoms: _80  and  _81
REMARK   35  A    between atoms: _91  and  _93
REMARK   36  A    between atoms: _93  and  _94
REMARK   37  A    between atoms: _93  and  _96
REMARK   38  A    between atoms: _96  and  _97
REMARK   39  A    between atoms: _97  and  _98
REMARK   40  A    between atoms: _98  and  _99
REMARK   41  A    between atoms: _99  and  _100
REMARK   42  A    between atoms: _104  and  _106
REMARK   43  A    between atoms: _106  and  _107
REMARK   44  A    between atoms: _106  and  _109
REMARK   45  A    between atoms: _109  and  _110
REMARK   46  A    between atoms: _115  and  _116
REMARK   47  A    between atoms: _118  and  _120
REMARK   48  A    between atoms: _120  and  _121
REMARK   49  A    between atoms: _120  and  _123
REMARK   50  A    between atoms: _123  and  _124
REMARK   51  A    between atoms: _127  and  _129
REMARK   52  A    between atoms: _129  and  _130
REMARK   53  A    between atoms: _129  and  _132
REMARK   54  A    between atoms: _132  and  _133
REMARK   55  A    between atoms: _136  and  _138
REMARK   56  A    between atoms: _138  and  _139
REMARK   57  A    between atoms: _138  and  _141
REMARK   58  A    between atoms: _144  and  _146
REMARK   59  A    between atoms: _146  and  _147
REMARK   60  A    between atoms: _146  and  _149
REMARK   61  A    between atoms: _149  and  _150
REMARK   62  A    between atoms: _155  and  _157
REMARK   63  A    between atoms: _157  and  _158
REMARK   64  A    between atoms: _157  and  _160
REMARK   65  A    between atoms: _160  and  _161
REMARK   66  A    between atoms: _161  and  _162
REMARK   67  A    between atoms: _165  and  _167
REMARK   68  A    between atoms: _167  and  _168
REMARK   69  A    between atoms: _167  and  _170
REMARK   70  A    between atoms: _170  and  _171
REMARK   71  A    between atoms: _174  and  _176
REMARK   72  A    between atoms: _176  and  _177
REMARK   73  A    between atoms: _180  and  _182
REMARK   74  A    between atoms: _182  and  _183
REMARK   75  A    between atoms: _185  and  _187
REMARK   76  A    between atoms: _187  and  _188
REMARK   77  A    between atoms: _187  and  _190
REMARK   78  A    between atoms: _190  and  _191
REMARK   79  A    between atoms: _194  and  _196
REMARK   80  A    between atoms: _196  and  _197
REMARK   81  A    between atoms: _200  and  _202
REMARK   82  A    between atoms: _202  and  _203
REMARK   83  A    between atoms: _202  and  _205
REMARK   84  A    between atoms: _205  and  _206
REMARK   85  A    between atoms: _206  and  _307
REMARK   86  A    between atoms: _207  and  _209
REMARK   87  A    between atoms: _209  and  _210
REMARK   88  A    between atoms: _209  and  _212
REMARK   89  A    between atoms: _212  and  _213
REMARK   90  A    between atoms: _213  and  _214
REMARK   91  A    between atoms: _217  and  _219
REMARK   92  A    between atoms: _219  and  _220
REMARK   93  A    between atoms: _222  and  _224
REMARK   94  A    between atoms: _224  and  _225
REMARK   95  A    between atoms: _224  and  _227
REMARK   96  A    between atoms: _227  and  _228
REMARK   97  A    between atoms: _231  and  _233
REMARK   98  A    between atoms: _233  and  _234
REMARK   99  A    between atoms: _233  and  _236
REMARK  100  A    between atoms: _236  and  _237
REMARK  101  A    between atoms: _239  and  _241
REMARK  102  A    between atoms: _241  and  _242
REMARK  103  A    between atoms: _244  and  _246
REMARK  104  A    between atoms: _246  and  _247
REMARK  105  A    between atoms: _249  and  _251
REMARK  106  A    between atoms: _251  and  _252
REMARK  107  A    between atoms: _251  and  _254
REMARK  108  A    between atoms: _257  and  _259
REMARK  109  A    between atoms: _259  and  _260
REMARK  110  A    between atoms: _259  and  _262
REMARK  111  A    between atoms: _262  and  _263
REMARK  112  A    between atoms: _265  and  _267
REMARK  113  A    between atoms: _267  and  _268
REMARK  114  A    between atoms: _267  and  _270
REMARK  115  A    between atoms: _270  and  _271
REMARK  116  A    between atoms: _281  and  _283
REMARK  117  A    between atoms: _283  and  _284
REMARK  118  A    between atoms: _286  and  _288
REMARK  119  A    between atoms: _288  and  _289
REMARK  120  A    between atoms: _288  and  _291
REMARK  121  A    between atoms: _291  and  _292
REMARK  122  A    between atoms: _292  and  _293
REMARK  123  A    between atoms: _296  and  _298
REMARK  124  A    between atoms: _298  and  _299
REMARK  125  A    between atoms: _301  and  _303
REMARK  126  A    between atoms: _303  and  _304
REMARK  127  A    between atoms: _303  and  _306
REMARK  128  A    between atoms: _306  and  _307
REMARK  129  A    between atoms: _308  and  _310
REMARK  130  A    between atoms: _310  and  _311
REMARK  131  A    between atoms: _310  and  _313
REMARK  132  A    between atoms: _313  and  _314
REMARK  133  A    between atoms: _317  and  _319
REMARK  134  A    between atoms: _319  and  _320
REMARK  135  A    between atoms: _319  and  _322
REMARK  136  A    between atoms: _322  and  _323
REMARK  137  A    between atoms: _323  and  _324
REMARK  138  A    between atoms: _324  and  _325
REMARK  139  A    between atoms: _334  and  _336
REMARK  140  A    between atoms: _336  and  _337
REMARK  141  A    between atoms: _336  and  _339
REMARK  142  A    between atoms: _339  and  _340
REMARK  143  A    between atoms: _340  and  _341
REMARK  144  A    between atoms: _341  and  _342
REMARK  145  A    between atoms: _342  and  _343
REMARK  146  A    between atoms: _347  and  _349
REMARK  147  A    between atoms: _349  and  _350
REMARK  148  A    between atoms: _349  and  _352
REMARK  149  A    between atoms: _352  and  _353
REMARK  150  A    between atoms: _358  and  _359
REMARK  151  A    between atoms: _361  and  _363
REMARK  152  A    between atoms: _363  and  _364
REMARK  153  A    between atoms: _366  and  _368
REMARK  154  A    between atoms: _368  and  _369
REMARK  155  A    between atoms: _368  and  _371
REMARK  156  A    between atoms: _371  and  _372
REMARK  157  A    between atoms: _378  and  _380
REMARK  158  A    between atoms: _380  and  _381
REMARK  159  A    between atoms: _380  and  _383
REMARK  160  A    between atoms: _383  and  _384
REMARK  161  A    between atoms: _389  and  _390
REMARK                            x       y       z     vdW  Elec       q    Type
REMARK                         _______ _______ _______ _____ _____    ______ ____
ROOT
ATOM      1  O   HOH     1      10.669 -11.907  12.169  0.00  0.00    +0.000 OA
ENDROOT
TORSDOF 0
REMARK  Name = ../refined-set-2016/1ghy/1ghy_pocket.pdb
REMARK  161 active torsions:
REMARK  status: ('A' for Active; 'I' for Inactive)
REMARK    1  A    between atoms: _1  and  _5
REMARK    2  A    between atoms: _5  and  _6
REMARK    3  A    between atoms: _5  and  _8
REMARK    4  A    between atoms: _8  and  _9
REMARK    5  A    between atoms: _12  and  _14
REMARK    6  A    between atoms: _14  and  _15
REMARK    7  A    between atoms: _14  and  _17
REMARK    8  A    between atoms: _20  and  _22
REMARK    9  A    between atoms: _22  and  _23
REMARK   10  A    between atoms: _22  and  _25
REMARK   11  A    between atoms: _25  and  _26
REMARK   12  A    between atoms: _29  and  _31
REMARK   13  A    between atoms: _31  and  _32
REMARK   14  A    between atoms: _31  and  _34
REMARK   15  A    between atoms: _34  and  _35
REMARK   16  A    between atoms: _35  and  _53
REMARK   17  A    between atoms: _36  and  _38
REMARK   18  A    between atoms: _38  and  _39
REMARK   19  A    between atoms: _38  and  _41
REMARK   20  A    between atoms: _41  and  _42
REMARK   21  A    between atoms: _47  and  _49
REMARK   22  A    between atoms: _49  and  _50
REMARK   23  A    between atoms: _49  and  _52
REMARK   24  A    between atoms: _52  and  _53
REMARK   25  A    between atoms: _54  and  _56
REMARK   26  A    between atoms: _56  and  _57
REMARK   27  A    between atoms: _56  and  _59
REMARK   28  A    between atoms: _59  and  _60
REMARK   29  A    between atoms: _65  and  _66
REMARK   30  A    between atoms: _69  and  _70
REMARK   31  A    between atoms: _75  and  _77
REMARK   32  A    between atoms: _77  and  _78
REMARK   33  A    between atoms: _77  and  _80
REMARK   34  A    between atoms: _80  and  _81
REMARK   35  A    between atoms: _91  and  _93
REMARK   36  A    between atoms: _93  and  _94
REMARK   37  A    between atoms: _93  and  _96
REMARK   38  A    between atoms: _96  and  _97
REMARK   39  A    between atoms: _97  and  _98
REMARK   40  A    between atoms: _98  and  _99
REMARK   41  A    between atoms: _99  and  _100
REMARK   42  A    between atoms: _104  and  _106
REMARK   43  A    between atoms: _106  and  _107
REMARK   44  A    between atoms: _106  and  _109
REMARK   45  A    between atoms: _109  and  _110
REMARK   46  A    between atoms: _115  and  _116
REMARK   47  A    between atoms: _118  and  _120
REMARK   48  A    between atoms: _120  and  _121
REMARK   49  A    between atoms: _120  and  _123
REMARK   50  A    between atoms: _123  and  _124
REMARK   51  A    between atoms: _127  and  _129
REMARK   52  A    between atoms: _129  and  _130
REMARK   53  A    between atoms: _129  and  _132
REMARK   54  A    between atoms: _132  and  _133
REMARK   55  A    between atoms: _136  and  _138
REMARK   56  A    between atoms: _138  and  _139
REMARK   57  A    between atoms: _138  and  _141
REMARK   58  A    between atoms: _144  and  _146
REMARK   59  A    between atoms: _146  and  _147
REMARK   60  A    between atoms: _146  and  _149
REMARK   61  A    between atoms: _149  and  _150
REMARK   62  A    between atoms: _155  and  _157
REMARK   63  A    between atoms: _157  and  _158
REMARK   64  A    between atoms: _157  and  _160
REMARK   65  A    between atoms: _160  and  _161
REMARK   66  A    between atoms: _161  and  _162
REMARK   67  A    between atoms: _165  and  _167
REMARK   68  A    between atoms: _167  and  _168
REMARK   69  A    between atoms: _167  and  _170
REMARK   70  A    between atoms: _170  and  _171
REMARK   71  A    between atoms: _174  and  _176
REMARK   72  A    between atoms: _176  and  _177
REMARK   73  A    between atoms: _180  and  _182
REMARK   74  A    between atoms: _182  and  _183
REMARK   75  A    between atoms: _185  and  _187
REMARK   76  A    between atoms: _187  and  _188
REMARK   77  A    between atoms: _187  and  _190
REMARK   78  A    between atoms: _190  and  _191
REMARK   79  A    between atoms: _194  and  _196
REMARK   80  A    between atoms: _196  and  _197
REMARK   81  A    between atoms: _200  and  _202
REMARK   82  A    between atoms: _202  and  _203
REMARK   83  A    between atoms: _202  and  _205
REMARK   84  A    between atoms: _205  and  _206
REMARK   85  A    between atoms: _206  and  _307
REMARK   86  A    between atoms: _207  and  _209
REMARK   87  A    between atoms: _209  and  _210
REMARK   88  A    between atoms: _209  and  _212
REMARK   89  A    between atoms: _212  and  _213
REMARK   90  A    between atoms: _213  and  _214
REMARK   91  A    between atoms: _217  and  _219
REMARK   92  A    between atoms: _219  and  _220
REMARK   93  A    between atoms: _222  and  _224
REMARK   94  A    between atoms: _224  and  _225
REMARK   95  A    between atoms: _224  and  _227
REMARK   96  A    between atoms: _227  and  _228
REMARK   97  A    between atoms: _231  and  _233
REMARK   98  A    between atoms: _233  and  _234
REMARK   99  A    between atoms: _233  and  _236
REMARK  100  A    between atoms: _236  and  _237
REMARK  101  A    between atoms: _239  and  _241
REMARK  102  A    between atoms: _241  and  _242
REMARK  103  A    between atoms: _244  and  _246
REMARK  104  A    between atoms: _246  and  _247
REMARK  105  A    between atoms: _249  and  _251
REMARK  106  A    between atoms: _251  and  _252
REMARK  107  A    between atoms: _251  and  _254
REMARK  108  A    between atoms: _257  and  _259
REMARK  109  A    between atoms: _259  and  _260
REMARK  110  A    between atoms: _259  and  _262
REMARK  111  A    between atoms: _262  and  _263
REMARK  112  A    between atoms: _265  and  _267
REMARK  113  A    between atoms: _267  and  _268
REMARK  114  A    between atoms: _267  and  _270
REMARK  115  A    between atoms: _270  and  _271
REMARK  116  A    between atoms: _281  and  _283
REMARK  117  A    between atoms: _283  and  _284
REMARK  118  A    between atoms: _286  and  _288
REMARK  119  A    between atoms: _288  and  _289
REMARK  120  A    between atoms: _288  and  _291
REMARK  121  A    between atoms: _291  and  _292
REMARK  122  A    between atoms: _292  and  _293
REMARK  123  A    between atoms: _296  and  _298
REMARK  124  A    between atoms: _298  and  _299
REMARK  125  A    between atoms: _301  and  _303
REMARK  126  A    between atoms: _303  and  _304
REMARK  127  A    between atoms: _303  and  _306
REMARK  128  A    between atoms: _306  and  _307
REMARK  129  A    between atoms: _308  and  _310
REMARK  130  A    between atoms: _310  and  _311
REMARK  131  A    between atoms: _310  and  _313
REMARK  132  A    between atoms: _313  and  _314
REMARK  133  A    between atoms: _317  and  _319
REMARK  134  A    between atoms: _319  and  _320
REMARK  135  A    between atoms: _319  and  _322
REMARK  136  A    between atoms: _322  and  _323
REMARK  137  A    between atoms: _323  and  _324
REMARK  138  A    between atoms: _324  and  _325
REMARK  139  A    between atoms: _334  and  _336
REMARK  140  A    between atoms: _336  and  _337
REMARK  141  A    between atoms: _336  and  _339
REMARK  142  A    between atoms: _339  and  _340
REMARK  143  A    between atoms: _340  and  _341
REMARK  144  A    between atoms: _341  and  _342
REMARK  145  A    between atoms: _342  and  _343
REMARK  146  A    between atoms: _347  and  _349
REMARK  147  A    between atoms: _349  and  _350
REMARK  148  A    between atoms: _349  and  _352
REMARK  149  A    between atoms: _352  and  _353
REMARK  150  A    between atoms: _358  and  _359
REMARK  151  A    between atoms: _361  and  _363
REMARK  152  A    between atoms: _363  and  _364
REMARK  153  A    between atoms: _366  and  _368
REMARK  154  A    between atoms: _368  and  _369
REMARK  155  A    between atoms: _368  and  _371
REMARK  156  A    between atoms: _371  and  _372
REMARK  157  A    between atoms: _378  and  _380
REMARK  158  A    between atoms: _380  and  _381
REMARK  159  A    between atoms: _380  and  _383
REMARK  160  A    between atoms: _383  and  _384
REMARK  161  A    between atoms: _389  and  _390
REMARK                            x       y       z     vdW  Elec       q    Type
REMARK                         _______ _______ _______ _____ _____    ______ ____
ROOT
ATOM      1  O   HOH     1      17.477 -15.942  25.030  0.00  0.00    +0.000 OA
ENDROOT
TORSDOF 0
REMARK  Name = ../refined-set-2016/1ghy/1ghy_pocket.pdb
REMARK  161 active torsions:
REMARK  status: ('A' for Active; 'I' for Inactive)
REMARK    1  A    between atoms: _1  and  _5
REMARK    2  A    between atoms: _5  and  _6
REMARK    3  A    between atoms: _5  and  _8
REMARK    4  A    between atoms: _8  and  _9
REMARK    5  A    between atoms: _12  and  _14
REMARK    6  A    between atoms: _14  and  _15
REMARK    7  A    between atoms: _14  and  _17
REMARK    8  A    between atoms: _20  and  _22
REMARK    9  A    between atoms: _22  and  _23
REMARK   10  A    between atoms: _22  and  _25
REMARK   11  A    between atoms: _25  and  _26
REMARK   12  A    between atoms: _29  and  _31
REMARK   13  A    between atoms: _31  and  _32
REMARK   14  A    between atoms: _31  and  _34
REMARK   15  A    between atoms: _34  and  _35
REMARK   16  A    between atoms: _35  and  _53
REMARK   17  A    between atoms: _36  and  _38
REMARK   18  A    between atoms: _38  and  _39
REMARK   19  A    between atoms: _38  and  _41
REMARK   20  A    between atoms: _41  and  _42
REMARK   21  A    between atoms: _47  and  _49
REMARK   22  A    between atoms: _49  and  _50
REMARK   23  A    between atoms: _49  and  _52
REMARK   24  A    between atoms: _52  and  _53
REMARK   25  A    between atoms: _54  and  _56
REMARK   26  A    between atoms: _56  and  _57
REMARK   27  A    between atoms: _56  and  _59
REMARK   28  A    between atoms: _59  and  _60
REMARK   29  A    between atoms: _65  and  _66
REMARK   30  A    between atoms: _69  and  _70
REMARK   31  A    between atoms: _75  and  _77
REMARK   32  A    between atoms: _77  and  _78
REMARK   33  A    between atoms: _77  and  _80
REMARK   34  A    between atoms: _80  and  _81
REMARK   35  A    between atoms: _91  and  _93
REMARK   36  A    between atoms: _93  and  _94
REMARK   37  A    between atoms: _93  and  _96
REMARK   38  A    between atoms: _96  and  _97
REMARK   39  A    between atoms: _97  and  _98
REMARK   40  A    between atoms: _98  and  _99
REMARK   41  A    between atoms: _99  and  _100
REMARK   42  A    between atoms: _104  and  _106
REMARK   43  A    between atoms: _106  and  _107
REMARK   44  A    between atoms: _106  and  _109
REMARK   45  A    between atoms: _109  and  _110
REMARK   46  A    between atoms: _115  and  _116
REMARK   47  A    between atoms: _118  and  _120
REMARK   48  A    between atoms: _120  and  _121
REMARK   49  A    between atoms: _120  and  _123
REMARK   50  A    between atoms: _123  and  _124
REMARK   51  A    between atoms: _127  and  _129
REMARK   52  A    between atoms: _129  and  _130
REMARK   53  A    between atoms: _129  and  _132
REMARK   54  A    between atoms: _132  and  _133
REMARK   55  A    between atoms: _136  and  _138
REMARK   56  A    between atoms: _138  and  _139
REMARK   57  A    between atoms: _138  and  _141
REMARK   58  A    between atoms: _144  and  _146
REMARK   59  A    between atoms: _146  and  _147
REMARK   60  A    between atoms: _146  and  _149
REMARK   61  A    between atoms: _149  and  _150
REMARK   62  A    between atoms: _155  and  _157
REMARK   63  A    between atoms: _157  and  _158
REMARK   64  A    between atoms: _157  and  _160
REMARK   65  A    between atoms: _160  and  _161
REMARK   66  A    between atoms: _161  and  _162
REMARK   67  A    between atoms: _165  and  _167
REMARK   68  A    between atoms: _167  and  _168
REMARK   69  A    between atoms: _167  and  _170
REMARK   70  A    between atoms: _170  and  _171
REMARK   71  A    between atoms: _174  and  _176
REMARK   72  A    between atoms: _176  and  _177
REMARK   73  A    between atoms: _180  and  _182
REMARK   74  A    between atoms: _182  and  _183
REMARK   75  A    between atoms: _185  and  _187
REMARK   76  A    between atoms: _187  and  _188
REMARK   77  A    between atoms: _187  and  _190
REMARK   78  A    between atoms: _190  and  _191
REMARK   79  A    between atoms: _194  and  _196
REMARK   80  A    between atoms: _196  and  _197
REMARK   81  A    between atoms: _200  and  _202
REMARK   82  A    between atoms: _202  and  _203
REMARK   83  A    between atoms: _202  and  _205
REMARK   84  A    between atoms: _205  and  _206
REMARK   85  A    between atoms: _206  and  _307
REMARK   86  A    between atoms: _207  and  _209
REMARK   87  A    between atoms: _209  and  _210
REMARK   88  A    between atoms: _209  and  _212
REMARK   89  A    between atoms: _212  and  _213
REMARK   90  A    between atoms: _213  and  _214
REMARK   91  A    between atoms: _217  and  _219
REMARK   92  A    between atoms: _219  and  _220
REMARK   93  A    between atoms: _222  and  _224
REMARK   94  A    between atoms: _224  and  _225
REMARK   95  A    between atoms: _224  and  _227
REMARK   96  A    between atoms: _227  and  _228
REMARK   97  A    between atoms: _231  and  _233
REMARK   98  A    between atoms: _233  and  _234
REMARK   99  A    between atoms: _233  and  _236
REMARK  100  A    between atoms: _236  and  _237
REMARK  101  A    between atoms: _239  and  _241
REMARK  102  A    between atoms: _241  and  _242
REMARK  103  A    between atoms: _244  and  _246
REMARK  104  A    between atoms: _246  and  _247
REMARK  105  A    between atoms: _249  and  _251
REMARK  106  A    between atoms: _251  and  _252
REMARK  107  A    between atoms: _251  and  _254
REMARK  108  A    between atoms: _257  and  _259
REMARK  109  A    between atoms: _259  and  _260
REMARK  110  A    between atoms: _259  and  _262
REMARK  111  A    between atoms: _262  and  _263
REMARK  112  A    between atoms: _265  and  _267
REMARK  113  A    between atoms: _267  and  _268
REMARK  114  A    between atoms: _267  and  _270
REMARK  115  A    between atoms: _270  and  _271
REMARK  116  A    between atoms: _281  and  _283
REMARK  117  A    between atoms: _283  and  _284
REMARK  118  A    between atoms: _286  and  _288
REMARK  119  A    between atoms: _288  and  _289
REMARK  120  A    between atoms: _288  and  _291
REMARK  121  A    between atoms: _291  and  _292
REMARK  122  A    between atoms: _292  and  _293
REMARK  123  A    between atoms: _296  and  _298
REMARK  124  A    between atoms: _298  and  _299
REMARK  125  A    between atoms: _301  and  _303
REMARK  126  A    between atoms: _303  and  _304
REMARK  127  A    between atoms: _303  and  _306
REMARK  128  A    between atoms: _306  and  _307
REMARK  129  A    between atoms: _308  and  _310
REMARK  130  A    between atoms: _310  and  _311
REMARK  131  A    between atoms: _310  and  _313
REMARK  132  A    between atoms: _313  and  _314
REMARK  133  A    between atoms: _317  and  _319
REMARK  134  A    between atoms: _319  and  _320
REMARK  135  A    between atoms: _319  and  _322
REMARK  136  A    between atoms: _322  and  _323
REMARK  137  A    between atoms: _323  and  _324
REMARK  138  A    between atoms: _324  and  _325
REMARK  139  A    between atoms: _334  and  _336
REMARK  140  A    between atoms: _336  and  _337
REMARK  141  A    between atoms: _336  and  _339
REMARK  142  A    between atoms: _339  and  _340
REMARK  143  A    between atoms: _340  and  _341
REMARK  144  A    between atoms: _341  and  _342
REMARK  145  A    between atoms: _342  and  _343
REMARK  146  A    between atoms: _347  and  _349
REMARK  147  A    between atoms: _349  and  _350
REMARK  148  A    between atoms: _349  and  _352
REMARK  149  A    between atoms: _352  and  _353
REMARK  150  A    between atoms: _358  and  _359
REMARK  151  A    between atoms: _361  and  _363
REMARK  152  A    between atoms: _363  and  _364
REMARK  153  A    between atoms: _366  and  _368
REMARK  154  A    between atoms: _368  and  _369
REMARK  155  A    between atoms: _368  and  _371
REMARK  156  A    between atoms: _371  and  _372
REMARK  157  A    between atoms: _378  and  _380
REMARK  158  A    between atoms: _380  and  _381
REMARK  159  A    between atoms: _380  and  _383
REMARK  160  A    between atoms: _383  and  _384
REMARK  161  A    between atoms: _389  and  _390
REMARK                            x       y       z     vdW  Elec       q    Type
REMARK                         _______ _______ _______ _____ _____    ______ ____
ROOT
ATOM      1  O   HOH     1      12.434  -8.294  25.068  0.00  0.00    +0.000 OA
ENDROOT
TORSDOF 0
REMARK  Name = ../refined-set-2016/1ghy/1ghy_pocket.pdb
REMARK  161 active torsions:
REMARK  status: ('A' for Active; 'I' for Inactive)
REMARK    1  A    between atoms: _1  and  _5
REMARK    2  A    between atoms: _5  and  _6
REMARK    3  A    between atoms: _5  and  _8
REMARK    4  A    between atoms: _8  and  _9
REMARK    5  A    between atoms: _12  and  _14
REMARK    6  A    between atoms: _14  and  _15
REMARK    7  A    between atoms: _14  and  _17
REMARK    8  A    between atoms: _20  and  _22
REMARK    9  A    between atoms: _22  and  _23
REMARK   10  A    between atoms: _22  and  _25
REMARK   11  A    between atoms: _25  and  _26
REMARK   12  A    between atoms: _29  and  _31
REMARK   13  A    between atoms: _31  and  _32
REMARK   14  A    between atoms: _31  and  _34
REMARK   15  A    between atoms: _34  and  _35
REMARK   16  A    between atoms: _35  and  _53
REMARK   17  A    between atoms: _36  and  _38
REMARK   18  A    between atoms: _38  and  _39
REMARK   19  A    between atoms: _38  and  _41
REMARK   20  A    between atoms: _41  and  _42
REMARK   21  A    between atoms: _47  and  _49
REMARK   22  A    between atoms: _49  and  _50
REMARK   23  A    between atoms: _49  and  _52
REMARK   24  A    between atoms: _52  and  _53
REMARK   25  A    between atoms: _54  and  _56
REMARK   26  A    between atoms: _56  and  _57
REMARK   27  A    between atoms: _56  and  _59
REMARK   28  A    between atoms: _59  and  _60
REMARK   29  A    between atoms: _65  and  _66
REMARK   30  A    between atoms: _69  and  _70
REMARK   31  A    between atoms: _75  and  _77
REMARK   32  A    between atoms: _77  and  _78
REMARK   33  A    between atoms: _77  and  _80
REMARK   34  A    between atoms: _80  and  _81
REMARK   35  A    between atoms: _91  and  _93
REMARK   36  A    between atoms: _93  and  _94
REMARK   37  A    between atoms: _93  and  _96
REMARK   38  A    between atoms: _96  and  _97
REMARK   39  A    between atoms: _97  and  _98
REMARK   40  A    between atoms: _98  and  _99
REMARK   41  A    between atoms: _99  and  _100
REMARK   42  A    between atoms: _104  and  _106
REMARK   43  A    between atoms: _106  and  _107
REMARK   44  A    between atoms: _106  and  _109
REMARK   45  A    between atoms: _109  and  _110
REMARK   46  A    between atoms: _115  and  _116
REMARK   47  A    between atoms: _118  and  _120
REMARK   48  A    between atoms: _120  and  _121
REMARK   49  A    between atoms: _120  and  _123
REMARK   50  A    between atoms: _123  and  _124
REMARK   51  A    between atoms: _127  and  _129
REMARK   52  A    between atoms: _129  and  _130
REMARK   53  A    between atoms: _129  and  _132
REMARK   54  A    between atoms: _132  and  _133
REMARK   55  A    between atoms: _136  and  _138
REMARK   56  A    between atoms: _138  and  _139
REMARK   57  A    between atoms: _138  and  _141
REMARK   58  A    between atoms: _144  and  _146
REMARK   59  A    between atoms: _146  and  _147
REMARK   60  A    between atoms: _146  and  _149
REMARK   61  A    between atoms: _149  and  _150
REMARK   62  A    between atoms: _155  and  _157
REMARK   63  A    between atoms: _157  and  _158
REMARK   64  A    between atoms: _157  and  _160
REMARK   65  A    between atoms: _160  and  _161
REMARK   66  A    between atoms: _161  and  _162
REMARK   67  A    between atoms: _165  and  _167
REMARK   68  A    between atoms: _167  and  _168
REMARK   69  A    between atoms: _167  and  _170
REMARK   70  A    between atoms: _170  and  _171
REMARK   71  A    between atoms: _174  and  _176
REMARK   72  A    between atoms: _176  and  _177
REMARK   73  A    between atoms: _180  and  _182
REMARK   74  A    between atoms: _182  and  _183
REMARK   75  A    between atoms: _185  and  _187
REMARK   76  A    between atoms: _187  and  _188
REMARK   77  A    between atoms: _187  and  _190
REMARK   78  A    between atoms: _190  and  _191
REMARK   79  A    between atoms: _194  and  _196
REMARK   80  A    between atoms: _196  and  _197
REMARK   81  A    between atoms: _200  and  _202
REMARK   82  A    between atoms: _202  and  _203
REMARK   83  A    between atoms: _202  and  _205
REMARK   84  A    between atoms: _205  and  _206
REMARK   85  A    between atoms: _206  and  _307
REMARK   86  A    between atoms: _207  and  _209
REMARK   87  A    between atoms: _209  and  _210
REMARK   88  A    between atoms: _209  and  _212
REMARK   89  A    between atoms: _212  and  _213
REMARK   90  A    between atoms: _213  and  _214
REMARK   91  A    between atoms: _217  and  _219
REMARK   92  A    between atoms: _219  and  _220
REMARK   93  A    between atoms: _222  and  _224
REMARK   94  A    between atoms: _224  and  _225
REMARK   95  A    between atoms: _224  and  _227
REMARK   96  A    between atoms: _227  and  _228
REMARK   97  A    between atoms: _231  and  _233
REMARK   98  A    between atoms: _233  and  _234
REMARK   99  A    between atoms: _233  and  _236
REMARK  100  A    between atoms: _236  and  _237
REMARK  101  A    between atoms: _239  and  _241
REMARK  102  A    between atoms: _241  and  _242
REMARK  103  A    between atoms: _244  and  _246
REMARK  104  A    between atoms: _246  and  _247
REMARK  105  A    between atoms: _249  and  _251
REMARK  106  A    between atoms: _251  and  _252
REMARK  107  A    between atoms: _251  and  _254
REMARK  108  A    between atoms: _257  and  _259
REMARK  109  A    between atoms: _259  and  _260
REMARK  110  A    between atoms: _259  and  _262
REMARK  111  A    between atoms: _262  and  _263
REMARK  112  A    between atoms: _265  and  _267
REMARK  113  A    between atoms: _267  and  _268
REMARK  114  A    between atoms: _267  and  _270
REMARK  115  A    between atoms: _270  and  _271
REMARK  116  A    between atoms: _281  and  _283
REMARK  117  A    between atoms: _283  and  _284
REMARK  118  A    between atoms: _286  and  _288
REMARK  119  A    between atoms: _288  and  _289
REMARK  120  A    between atoms: _288  and  _291
REMARK  121  A    between atoms: _291  and  _292
REMARK  122  A    between atoms: _292  and  _293
REMARK  123  A    between atoms: _296  and  _298
REMARK  124  A    between atoms: _298  and  _299
REMARK  125  A    between atoms: _301  and  _303
REMARK  126  A    between atoms: _303  and  _304
REMARK  127  A    between atoms: _303  and  _306
REMARK  128  A    between atoms: _306  and  _307
REMARK  129  A    between atoms: _308  and  _310
REMARK  130  A    between atoms: _310  and  _311
REMARK  131  A    between atoms: _310  and  _313
REMARK  132  A    between atoms: _313  and  _314
REMARK  133  A    between atoms: _317  and  _319
REMARK  134  A    between atoms: _319  and  _320
REMARK  135  A    between atoms: _319  and  _322
REMARK  136  A    between atoms: _322  and  _323
REMARK  137  A    between atoms: _323  and  _324
REMARK  138  A    between atoms: _324  and  _325
REMARK  139  A    between atoms: _334  and  _336
REMARK  140  A    between atoms: _336  and  _337
REMARK  141  A    between atoms: _336  and  _339
REMARK  142  A    between atoms: _339  and  _340
REMARK  143  A    between atoms: _340  and  _341
REMARK  144  A    between atoms: _341  and  _342
REMARK  145  A    between atoms: _342  and  _343
REMARK  146  A    between atoms: _347  and  _349
REMARK  147  A    between atoms: _349  and  _350
REMARK  148  A    between atoms: _349  and  _352
REMARK  149  A    between atoms: _352  and  _353
REMARK  150  A    between atoms: _358  and  _359
REMARK  151  A    between atoms: _361  and  _363
REMARK  152  A    between atoms: _363  and  _364
REMARK  153  A    between atoms: _366  and  _368
REMARK  154  A    between atoms: _368  and  _369
REMARK  155  A    between atoms: _368  and  _371
REMARK  156  A    between atoms: _371  and  _372
REMARK  157  A    between atoms: _378  and  _380
REMARK  158  A    between atoms: _380  and  _381
REMARK  159  A    between atoms: _380  and  _383
REMARK  160  A    between atoms: _383  and  _384
REMARK  161  A    between atoms: _389  and  _390
REMARK                            x       y       z     vdW  Elec       q    Type
REMARK                         _______ _______ _______ _____ _____    ______ ____
ROOT
ATOM      1  O   HOH     1      13.403 -16.545  21.086  0.00  0.00    +0.000 OA
ENDROOT
TORSDOF 0
REMARK  Name = ../refined-set-2016/1ghy/1ghy_pocket.pdb
REMARK  161 active torsions:
REMARK  status: ('A' for Active; 'I' for Inactive)
REMARK    1  A    between atoms: _1  and  _5
REMARK    2  A    between atoms: _5  and  _6
REMARK    3  A    between atoms: _5  and  _8
REMARK    4  A    between atoms: _8  and  _9
REMARK    5  A    between atoms: _12  and  _14
REMARK    6  A    between atoms: _14  and  _15
REMARK    7  A    between atoms: _14  and  _17
REMARK    8  A    between atoms: _20  and  _22
REMARK    9  A    between atoms: _22  and  _23
REMARK   10  A    between atoms: _22  and  _25
REMARK   11  A    between atoms: _25  and  _26
REMARK   12  A    between atoms: _29  and  _31
REMARK   13  A    between atoms: _31  and  _32
REMARK   14  A    between atoms: _31  and  _34
REMARK   15  A    between atoms: _34  and  _35
REMARK   16  A    between atoms: _35  and  _53
REMARK   17  A    between atoms: _36  and  _38
REMARK   18  A    between atoms: _38  and  _39
REMARK   19  A    between atoms: _38  and  _41
REMARK   20  A    between atoms: _41  and  _42
REMARK   21  A    between atoms: _47  and  _49
REMARK   22  A    between atoms: _49  and  _50
REMARK   23  A    between atoms: _49  and  _52
REMARK   24  A    between atoms: _52  and  _53
REMARK   25  A    between atoms: _54  and  _56
REMARK   26  A    between atoms: _56  and  _57
REMARK   27  A    between atoms: _56  and  _59
REMARK   28  A    between atoms: _59  and  _60
REMARK   29  A    between atoms: _65  and  _66
REMARK   30  A    between atoms: _69  and  _70
REMARK   31  A    between atoms: _75  and  _77
REMARK   32  A    between atoms: _77  and  _78
REMARK   33  A    between atoms: _77  and  _80
REMARK   34  A    between atoms: _80  and  _81
REMARK   35  A    between atoms: _91  and  _93
REMARK   36  A    between atoms: _93  and  _94
REMARK   37  A    between atoms: _93  and  _96
REMARK   38  A    between atoms: _96  and  _97
REMARK   39  A    between atoms: _97  and  _98
REMARK   40  A    between atoms: _98  and  _99
REMARK   41  A    between atoms: _99  and  _100
REMARK   42  A    between atoms: _104  and  _106
REMARK   43  A    between atoms: _106  and  _107
REMARK   44  A    between atoms: _106  and  _109
REMARK   45  A    between atoms: _109  and  _110
REMARK   46  A    between atoms: _115  and  _116
REMARK   47  A    between atoms: _118  and  _120
REMARK   48  A    between atoms: _120  and  _121
REMARK   49  A    between atoms: _120  and  _123
REMARK   50  A    between atoms: _123  and  _124
REMARK   51  A    between atoms: _127  and  _129
REMARK   52  A    between atoms: _129  and  _130
REMARK   53  A    between atoms: _129  and  _132
REMARK   54  A    between atoms: _132  and  _133
REMARK   55  A    between atoms: _136  and  _138
REMARK   56  A    between atoms: _138  and  _139
REMARK   57  A    between atoms: _138  and  _141
REMARK   58  A    between atoms: _144  and  _146
REMARK   59  A    between atoms: _146  and  _147
REMARK   60  A    between atoms: _146  and  _149
REMARK   61  A    between atoms: _149  and  _150
REMARK   62  A    between atoms: _155  and  _157
REMARK   63  A    between atoms: _157  and  _158
REMARK   64  A    between atoms: _157  and  _160
REMARK   65  A    between atoms: _160  and  _161
REMARK   66  A    between atoms: _161  and  _162
REMARK   67  A    between atoms: _165  and  _167
REMARK   68  A    between atoms: _167  and  _168
REMARK   69  A    between atoms: _167  and  _170
REMARK   70  A    between atoms: _170  and  _171
REMARK   71  A    between atoms: _174  and  _176
REMARK   72  A    between atoms: _176  and  _177
REMARK   73  A    between atoms: _180  and  _182
REMARK   74  A    between atoms: _182  and  _183
REMARK   75  A    between atoms: _185  and  _187
REMARK   76  A    between atoms: _187  and  _188
REMARK   77  A    between atoms: _187  and  _190
REMARK   78  A    between atoms: _190  and  _191
REMARK   79  A    between atoms: _194  and  _196
REMARK   80  A    between atoms: _196  and  _197
REMARK   81  A    between atoms: _200  and  _202
REMARK   82  A    between atoms: _202  and  _203
REMARK   83  A    between atoms: _202  and  _205
REMARK   84  A    between atoms: _205  and  _206
REMARK   85  A    between atoms: _206  and  _307
REMARK   86  A    between atoms: _207  and  _209
REMARK   87  A    between atoms: _209  and  _210
REMARK   88  A    between atoms: _209  and  _212
REMARK   89  A    between atoms: _212  and  _213
REMARK   90  A    between atoms: _213  and  _214
REMARK   91  A    between atoms: _217  and  _219
REMARK   92  A    between atoms: _219  and  _220
REMARK   93  A    between atoms: _222  and  _224
REMARK   94  A    between atoms: _224  and  _225
REMARK   95  A    between atoms: _224  and  _227
REMARK   96  A    between atoms: _227  and  _228
REMARK   97  A    between atoms: _231  and  _233
REMARK   98  A    between atoms: _233  and  _234
REMARK   99  A    between atoms: _233  and  _236
REMARK  100  A    between atoms: _236  and  _237
REMARK  101  A    between atoms: _239  and  _241
REMARK  102  A    between atoms: _241  and  _242
REMARK  103  A    between atoms: _244  and  _246
REMARK  104  A    between atoms: _246  and  _247
REMARK  105  A    between atoms: _249  and  _251
REMARK  106  A    between atoms: _251  and  _252
REMARK  107  A    between atoms: _251  and  _254
REMARK  108  A    between atoms: _257  and  _259
REMARK  109  A    between atoms: _259  and  _260
REMARK  110  A    between atoms: _259  and  _262
REMARK  111  A    between atoms: _262  and  _263
REMARK  112  A    between atoms: _265  and  _267
REMARK  113  A    between atoms: _267  and  _268
REMARK  114  A    between atoms: _267  and  _270
REMARK  115  A    between atoms: _270  and  _271
REMARK  116  A    between atoms: _281  and  _283
REMARK  117  A    between atoms: _283  and  _284
REMARK  118  A    between atoms: _286  and  _288
REMARK  119  A    between atoms: _288  and  _289
REMARK  120  A    between atoms: _288  and  _291
REMARK  121  A    between atoms: _291  and  _292
REMARK  122  A    between atoms: _292  and  _293
REMARK  123  A    between atoms: _296  and  _298
REMARK  124  A    between atoms: _298  and  _299
REMARK  125  A    between atoms: _301  and  _303
REMARK  126  A    between atoms: _303  and  _304
REMARK  127  A    between atoms: _303  and  _306
REMARK  128  A    between atoms: _306  and  _307
REMARK  129  A    between atoms: _308  and  _310
REMARK  130  A    between atoms: _310  and  _311
REMARK  131  A    between atoms: _310  and  _313
REMARK  132  A    between atoms: _313  and  _314
REMARK  133  A    between atoms: _317  and  _319
REMARK  134  A    between atoms: _319  and  _320
REMARK  135  A    between atoms: _319  and  _322
REMARK  136  A    between atoms: _322  and  _323
REMARK  137  A    between atoms: _323  and  _324
REMARK  138  A    between atoms: _324  and  _325
REMARK  139  A    between atoms: _334  and  _336
REMARK  140  A    between atoms: _336  and  _337
REMARK  141  A    between atoms: _336  and  _339
REMARK  142  A    between atoms: _339  and  _340
REMARK  143  A    between atoms: _340  and  _341
REMARK  144  A    between atoms: _341  and  _342
REMARK  145  A    between atoms: _342  and  _343
REMARK  146  A    between atoms: _347  and  _349
REMARK  147  A    between atoms: _349  and  _350
REMARK  148  A    between atoms: _349  and  _352
REMARK  149  A    between atoms: _352  and  _353
REMARK  150  A    between atoms: _358  and  _359
REMARK  151  A    between atoms: _361  and  _363
REMARK  152  A    between atoms: _363  and  _364
REMARK  153  A    between atoms: _366  and  _368
REMARK  154  A    between atoms: _368  and  _369
REMARK  155  A    between atoms: _368  and  _371
REMARK  156  A    between atoms: _371  and  _372
REMARK  157  A    between atoms: _378  and  _380
REMARK  158  A    between atoms: _380  and  _381
REMARK  159  A    between atoms: _380  and  _383
REMARK  160  A    between atoms: _383  and  _384
REMARK  161  A    between atoms: _389  and  _390
REMARK                            x       y       z     vdW  Elec       q    Type
REMARK                         _______ _______ _______ _____ _____    ______ ____
ROOT
ATOM      1  O   HOH     1      21.428 -13.187  26.389  0.00  0.00    +0.000 OA
ENDROOT
TORSDOF 0
REMARK  Name = ../refined-set-2016/1ghy/1ghy_pocket.pdb
REMARK  161 active torsions:
REMARK  status: ('A' for Active; 'I' for Inactive)
REMARK    1  A    between atoms: _1  and  _5
REMARK    2  A    between atoms: _5  and  _6
REMARK    3  A    between atoms: _5  and  _8
REMARK    4  A    between atoms: _8  and  _9
REMARK    5  A    between atoms: _12  and  _14
REMARK    6  A    between atoms: _14  and  _15
REMARK    7  A    between atoms: _14  and  _17
REMARK    8  A    between atoms: _20  and  _22
REMARK    9  A    between atoms: _22  and  _23
REMARK   10  A    between atoms: _22  and  _25
REMARK   11  A    between atoms: _25  and  _26
REMARK   12  A    between atoms: _29  and  _31
REMARK   13  A    between atoms: _31  and  _32
REMARK   14  A    between atoms: _31  and  _34
REMARK   15  A    between atoms: _34  and  _35
REMARK   16  A    between atoms: _35  and  _53
REMARK   17  A    between atoms: _36  and  _38
REMARK   18  A    between atoms: _38  and  _39
REMARK   19  A    between atoms: _38  and  _41
REMARK   20  A    between atoms: _41  and  _42
REMARK   21  A    between atoms: _47  and  _49
REMARK   22  A    between atoms: _49  and  _50
REMARK   23  A    between atoms: _49  and  _52
REMARK   24  A    between atoms: _52  and  _53
REMARK   25  A    between atoms: _54  and  _56
REMARK   26  A    between atoms: _56  and  _57
REMARK   27  A    between atoms: _56  and  _59
REMARK   28  A    between atoms: _59  and  _60
REMARK   29  A    between atoms: _65  and  _66
REMARK   30  A    between atoms: _69  and  _70
REMARK   31  A    between atoms: _75  and  _77
REMARK   32  A    between atoms: _77  and  _78
REMARK   33  A    between atoms: _77  and  _80
REMARK   34  A    between atoms: _80  and  _81
REMARK   35  A    between atoms: _91  and  _93
REMARK   36  A    between atoms: _93  and  _94
REMARK   37  A    between atoms: _93  and  _96
REMARK   38  A    between atoms: _96  and  _97
REMARK   39  A    between atoms: _97  and  _98
REMARK   40  A    between atoms: _98  and  _99
REMARK   41  A    between atoms: _99  and  _100
REMARK   42  A    between atoms: _104  and  _106
REMARK   43  A    between atoms: _106  and  _107
REMARK   44  A    between atoms: _106  and  _109
REMARK   45  A    between atoms: _109  and  _110
REMARK   46  A    between atoms: _115  and  _116
REMARK   47  A    between atoms: _118  and  _120
REMARK   48  A    between atoms: _120  and  _121
REMARK   49  A    between atoms: _120  and  _123
REMARK   50  A    between atoms: _123  and  _124
REMARK   51  A    between atoms: _127  and  _129
REMARK   52  A    between atoms: _129  and  _130
REMARK   53  A    between atoms: _129  and  _132
REMARK   54  A    between atoms: _132  and  _133
REMARK   55  A    between atoms: _136  and  _138
REMARK   56  A    between atoms: _138  and  _139
REMARK   57  A    between atoms: _138  and  _141
REMARK   58  A    between atoms: _144  and  _146
REMARK   59  A    between atoms: _146  and  _147
REMARK   60  A    between atoms: _146  and  _149
REMARK   61  A    between atoms: _149  and  _150
REMARK   62  A    between atoms: _155  and  _157
REMARK   63  A    between atoms: _157  and  _158
REMARK   64  A    between atoms: _157  and  _160
REMARK   65  A    between atoms: _160  and  _161
REMARK   66  A    between atoms: _161  and  _162
REMARK   67  A    between atoms: _165  and  _167
REMARK   68  A    between atoms: _167  and  _168
REMARK   69  A    between atoms: _167  and  _170
REMARK   70  A    between atoms: _170  and  _171
REMARK   71  A    between atoms: _174  and  _176
REMARK   72  A    between atoms: _176  and  _177
REMARK   73  A    between atoms: _180  and  _182
REMARK   74  A    between atoms: _182  and  _183
REMARK   75  A    between atoms: _185  and  _187
REMARK   76  A    between atoms: _187  and  _188
REMARK   77  A    between atoms: _187  and  _190
REMARK   78  A    between atoms: _190  and  _191
REMARK   79  A    between atoms: _194  and  _196
REMARK   80  A    between atoms: _196  and  _197
REMARK   81  A    between atoms: _200  and  _202
REMARK   82  A    between atoms: _202  and  _203
REMARK   83  A    between atoms: _202  and  _205
REMARK   84  A    between atoms: _205  and  _206
REMARK   85  A    between atoms: _206  and  _307
REMARK   86  A    between atoms: _207  and  _209
REMARK   87  A    between atoms: _209  and  _210
REMARK   88  A    between atoms: _209  and  _212
REMARK   89  A    between atoms: _212  and  _213
REMARK   90  A    between atoms: _213  and  _214
REMARK   91  A    between atoms: _217  and  _219
REMARK   92  A    between atoms: _219  and  _220
REMARK   93  A    between atoms: _222  and  _224
REMARK   94  A    between atoms: _224  and  _225
REMARK   95  A    between atoms: _224  and  _227
REMARK   96  A    between atoms: _227  and  _228
REMARK   97  A    between atoms: _231  and  _233
REMARK   98  A    between atoms: _233  and  _234
REMARK   99  A    between atoms: _233  and  _236
REMARK  100  A    between atoms: _236  and  _237
REMARK  101  A    between atoms: _239  and  _241
REMARK  102  A    between atoms: _241  and  _242
REMARK  103  A    between atoms: _244  and  _246
REMARK  104  A    between atoms: _246  and  _247
REMARK  105  A    between atoms: _249  and  _251
REMARK  106  A    between atoms: _251  and  _252
REMARK  107  A    between atoms: _251  and  _254
REMARK  108  A    between atoms: _257  and  _259
REMARK  109  A    between atoms: _259  and  _260
REMARK  110  A    between atoms: _259  and  _262
REMARK  111  A    between atoms: _262  and  _263
REMARK  112  A    between atoms: _265  and  _267
REMARK  113  A    between atoms: _267  and  _268
REMARK  114  A    between atoms: _267  and  _270
REMARK  115  A    between atoms: _270  and  _271
REMARK  116  A    between atoms: _281  and  _283
REMARK  117  A    between atoms: _283  and  _284
REMARK  118  A    between atoms: _286  and  _288
REMARK  119  A    between atoms: _288  and  _289
REMARK  120  A    between atoms: _288  and  _291
REMARK  121  A    between atoms: _291  and  _292
REMARK  122  A    between atoms: _292  and  _293
REMARK  123  A    between atoms: _296  and  _298
REMARK  124  A    between atoms: _298  and  _299
REMARK  125  A    between atoms: _301  and  _303
REMARK  126  A    between atoms: _303  and  _304
REMARK  127  A    between atoms: _303  and  _306
REMARK  128  A    between atoms: _306  and  _307
REMARK  129  A    between atoms: _308  and  _310
REMARK  130  A    between atoms: _310  and  _311
REMARK  131  A    between atoms: _310  and  _313
REMARK  132  A    between atoms: _313  and  _314
REMARK  133  A    between atoms: _317  and  _319
REMARK  134  A    between atoms: _319  and  _320
REMARK  135  A    between atoms: _319  and  _322
REMARK  136  A    between atoms: _322  and  _323
REMARK  137  A    between atoms: _323  and  _324
REMARK  138  A    between atoms: _324  and  _325
REMARK  139  A    between atoms: _334  and  _336
REMARK  140  A    between atoms: _336  and  _337
REMARK  141  A    between atoms: _336  and  _339
REMARK  142  A    between atoms: _339  and  _340
REMARK  143  A    between atoms: _340  and  _341
REMARK  144  A    between atoms: _341  and  _342
REMARK  145  A    between atoms: _342  and  _343
REMARK  146  A    between atoms: _347  and  _349
REMARK  147  A    between atoms: _349  and  _350
REMARK  148  A    between atoms: _349  and  _352
REMARK  149  A    between atoms: _352  and  _353
REMARK  150  A    between atoms: _358  and  _359
REMARK  151  A    between atoms: _361  and  _363
REMARK  152  A    between atoms: _363  and  _364
REMARK  153  A    between atoms: _366  and  _368
REMARK  154  A    between atoms: _368  and  _369
REMARK  155  A    between atoms: _368  and  _371
REMARK  156  A    between atoms: _371  and  _372
REMARK  157  A    between atoms: _378  and  _380
REMARK  158  A    between atoms: _380  and  _381
REMARK  159  A    between atoms: _380  and  _383
REMARK  160  A    between atoms: _383  and  _384
REMARK  161  A    between atoms: _389  and  _390
REMARK                            x       y       z     vdW  Elec       q    Type
REMARK                         _______ _______ _______ _____ _____    ______ ____
ROOT
ATOM      1  O   HOH     1      15.571 -12.809  10.223  0.00  0.00    +0.000 OA
ENDROOT
TORSDOF 0
REMARK  Name = ../refined-set-2016/1ghy/1ghy_pocket.pdb
REMARK  161 active torsions:
REMARK  status: ('A' for Active; 'I' for Inactive)
REMARK    1  A    between atoms: _1  and  _5
REMARK    2  A    between atoms: _5  and  _6
REMARK    3  A    between atoms: _5  and  _8
REMARK    4  A    between atoms: _8  and  _9
REMARK    5  A    between atoms: _12  and  _14
REMARK    6  A    between atoms: _14  and  _15
REMARK    7  A    between atoms: _14  and  _17
REMARK    8  A    between atoms: _20  and  _22
REMARK    9  A    between atoms: _22  and  _23
REMARK   10  A    between atoms: _22  and  _25
REMARK   11  A    between atoms: _25  and  _26
REMARK   12  A    between atoms: _29  and  _31
REMARK   13  A    between atoms: _31  and  _32
REMARK   14  A    between atoms: _31  and  _34
REMARK   15  A    between atoms: _34  and  _35
REMARK   16  A    between atoms: _35  and  _53
REMARK   17  A    between atoms: _36  and  _38
REMARK   18  A    between atoms: _38  and  _39
REMARK   19  A    between atoms: _38  and  _41
REMARK   20  A    between atoms: _41  and  _42
REMARK   21  A    between atoms: _47  and  _49
REMARK   22  A    between atoms: _49  and  _50
REMARK   23  A    between atoms: _49  and  _52
REMARK   24  A    between atoms: _52  and  _53
REMARK   25  A    between atoms: _54  and  _56
REMARK   26  A    between atoms: _56  and  _57
REMARK   27  A    between atoms: _56  and  _59
REMARK   28  A    between atoms: _59  and  _60
REMARK   29  A    between atoms: _65  and  _66
REMARK   30  A    between atoms: _69  and  _70
REMARK   31  A    between atoms: _75  and  _77
REMARK   32  A    between atoms: _77  and  _78
REMARK   33  A    between atoms: _77  and  _80
REMARK   34  A    between atoms: _80  and  _81
REMARK   35  A    between atoms: _91  and  _93
REMARK   36  A    between atoms: _93  and  _94
REMARK   37  A    between atoms: _93  and  _96
REMARK   38  A    between atoms: _96  and  _97
REMARK   39  A    between atoms: _97  and  _98
REMARK   40  A    between atoms: _98  and  _99
REMARK   41  A    between atoms: _99  and  _100
REMARK   42  A    between atoms: _104  and  _106
REMARK   43  A    between atoms: _106  and  _107
REMARK   44  A    between atoms: _106  and  _109
REMARK   45  A    between atoms: _109  and  _110
REMARK   46  A    between atoms: _115  and  _116
REMARK   47  A    between atoms: _118  and  _120
REMARK   48  A    between atoms: _120  and  _121
REMARK   49  A    between atoms: _120  and  _123
REMARK   50  A    between atoms: _123  and  _124
REMARK   51  A    between atoms: _127  and  _129
REMARK   52  A    between atoms: _129  and  _130
REMARK   53  A    between atoms: _129  and  _132
REMARK   54  A    between atoms: _132  and  _133
REMARK   55  A    between atoms: _136  and  _138
REMARK   56  A    between atoms: _138  and  _139
REMARK   57  A    between atoms: _138  and  _141
REMARK   58  A    between atoms: _144  and  _146
REMARK   59  A    between atoms: _146  and  _147
REMARK   60  A    between atoms: _146  and  _149
REMARK   61  A    between atoms: _149  and  _150
REMARK   62  A    between atoms: _155  and  _157
REMARK   63  A    between atoms: _157  and  _158
REMARK   64  A    between atoms: _157  and  _160
REMARK   65  A    between atoms: _160  and  _161
REMARK   66  A    between atoms: _161  and  _162
REMARK   67  A    between atoms: _165  and  _167
REMARK   68  A    between atoms: _167  and  _168
REMARK   69  A    between atoms: _167  and  _170
REMARK   70  A    between atoms: _170  and  _171
REMARK   71  A    between atoms: _174  and  _176
REMARK   72  A    between atoms: _176  and  _177
REMARK   73  A    between atoms: _180  and  _182
REMARK   74  A    between atoms: _182  and  _183
REMARK   75  A    between atoms: _185  and  _187
REMARK   76  A    between atoms: _187  and  _188
REMARK   77  A    between atoms: _187  and  _190
REMARK   78  A    between atoms: _190  and  _191
REMARK   79  A    between atoms: _194  and  _196
REMARK   80  A    between atoms: _196  and  _197
REMARK   81  A    between atoms: _200  and  _202
REMARK   82  A    between atoms: _202  and  _203
REMARK   83  A    between atoms: _202  and  _205
REMARK   84  A    between atoms: _205  and  _206
REMARK   85  A    between atoms: _206  and  _307
REMARK   86  A    between atoms: _207  and  _209
REMARK   87  A    between atoms: _209  and  _210
REMARK   88  A    between atoms: _209  and  _212
REMARK   89  A    between atoms: _212  and  _213
REMARK   90  A    between atoms: _213  and  _214
REMARK   91  A    between atoms: _217  and  _219
REMARK   92  A    between atoms: _219  and  _220
REMARK   93  A    between atoms: _222  and  _224
REMARK   94  A    between atoms: _224  and  _225
REMARK   95  A    between atoms: _224  and  _227
REMARK   96  A    between atoms: _227  and  _228
REMARK   97  A    between atoms: _231  and  _233
REMARK   98  A    between atoms: _233  and  _234
REMARK   99  A    between atoms: _233  and  _236
REMARK  100  A    between atoms: _236  and  _237
REMARK  101  A    between atoms: _239  and  _241
REMARK  102  A    between atoms: _241  and  _242
REMARK  103  A    between atoms: _244  and  _246
REMARK  104  A    between atoms: _246  and  _247
REMARK  105  A    between atoms: _249  and  _251
REMARK  106  A    between atoms: _251  and  _252
REMARK  107  A    between atoms: _251  and  _254
REMARK  108  A    between atoms: _257  and  _259
REMARK  109  A    between atoms: _259  and  _260
REMARK  110  A    between atoms: _259  and  _262
REMARK  111  A    between atoms: _262  and  _263
REMARK  112  A    between atoms: _265  and  _267
REMARK  113  A    between atoms: _267  and  _268
REMARK  114  A    between atoms: _267  and  _270
REMARK  115  A    between atoms: _270  and  _271
REMARK  116  A    between atoms: _281  and  _283
REMARK  117  A    between atoms: _283  and  _284
REMARK  118  A    between atoms: _286  and  _288
REMARK  119  A    between atoms: _288  and  _289
REMARK  120  A    between atoms: _288  and  _291
REMARK  121  A    between atoms: _291  and  _292
REMARK  122  A    between atoms: _292  and  _293
REMARK  123  A    between atoms: _296  and  _298
REMARK  124  A    between atoms: _298  and  _299
REMARK  125  A    between atoms: _301  and  _303
REMARK  126  A    between atoms: _303  and  _304
REMARK  127  A    between atoms: _303  and  _306
REMARK  128  A    between atoms: _306  and  _307
REMARK  129  A    between atoms: _308  and  _310
REMARK  130  A    between atoms: _310  and  _311
REMARK  131  A    between atoms: _310  and  _313
REMARK  132  A    between atoms: _313  and  _314
REMARK  133  A    between atoms: _317  and  _319
REMARK  134  A    between atoms: _319  and  _320
REMARK  135  A    between atoms: _319  and  _322
REMARK  136  A    between atoms: _322  and  _323
REMARK  137  A    between atoms: _323  and  _324
REMARK  138  A    between atoms: _324  and  _325
REMARK  139  A    between atoms: _334  and  _336
REMARK  140  A    between atoms: _336  and  _337
REMARK  141  A    between atoms: _336  and  _339
REMARK  142  A    between atoms: _339  and  _340
REMARK  143  A    between atoms: _340  and  _341
REMARK  144  A    between atoms: _341  and  _342
REMARK  145  A    between atoms: _342  and  _343
REMARK  146  A    between atoms: _347  and  _349
REMARK  147  A    between atoms: _349  and  _350
REMARK  148  A    between atoms: _349  and  _352
REMARK  149  A    between atoms: _352  and  _353
REMARK  150  A    between atoms: _358  and  _359
REMARK  151  A    between atoms: _361  and  _363
REMARK  152  A    between atoms: _363  and  _364
REMARK  153  A    between atoms: _366  and  _368
REMARK  154  A    between atoms: _368  and  _369
REMARK  155  A    between atoms: _368  and  _371
REMARK  156  A    between atoms: _371  and  _372
REMARK  157  A    between atoms: _378  and  _380
REMARK  158  A    between atoms: _380  and  _381
REMARK  159  A    between atoms: _380  and  _383
REMARK  160  A    between atoms: _383  and  _384
REMARK  161  A    between atoms: _389  and  _390
REMARK                            x       y       z     vdW  Elec       q    Type
REMARK                         _______ _______ _______ _____ _____    ______ ____
ROOT
ATOM      1  O   HOH     1      16.892 -17.867  23.139  0.00  0.00    +0.000 OA
ENDROOT
TORSDOF 0
REMARK  Name = ../refined-set-2016/1ghy/1ghy_pocket.pdb
REMARK  161 active torsions:
REMARK  status: ('A' for Active; 'I' for Inactive)
REMARK    1  A    between atoms: _1  and  _5
REMARK    2  A    between atoms: _5  and  _6
REMARK    3  A    between atoms: _5  and  _8
REMARK    4  A    between atoms: _8  and  _9
REMARK    5  A    between atoms: _12  and  _14
REMARK    6  A    between atoms: _14  and  _15
REMARK    7  A    between atoms: _14  and  _17
REMARK    8  A    between atoms: _20  and  _22
REMARK    9  A    between atoms: _22  and  _23
REMARK   10  A    between atoms: _22  and  _25
REMARK   11  A    between atoms: _25  and  _26
REMARK   12  A    between atoms: _29  and  _31
REMARK   13  A    between atoms: _31  and  _32
REMARK   14  A    between atoms: _31  and  _34
REMARK   15  A    between atoms: _34  and  _35
REMARK   16  A    between atoms: _35  and  _53
REMARK   17  A    between atoms: _36  and  _38
REMARK   18  A    between atoms: _38  and  _39
REMARK   19  A    between atoms: _38  and  _41
REMARK   20  A    between atoms: _41  and  _42
REMARK   21  A    between atoms: _47  and  _49
REMARK   22  A    between atoms: _49  and  _50
REMARK   23  A    between atoms: _49  and  _52
REMARK   24  A    between atoms: _52  and  _53
REMARK   25  A    between atoms: _54  and  _56
REMARK   26  A    between atoms: _56  and  _57
REMARK   27  A    between atoms: _56  and  _59
REMARK   28  A    between atoms: _59  and  _60
REMARK   29  A    between atoms: _65  and  _66
REMARK   30  A    between atoms: _69  and  _70
REMARK   31  A    between atoms: _75  and  _77
REMARK   32  A    between atoms: _77  and  _78
REMARK   33  A    between atoms: _77  and  _80
REMARK   34  A    between atoms: _80  and  _81
REMARK   35  A    between atoms: _91  and  _93
REMARK   36  A    between atoms: _93  and  _94
REMARK   37  A    between atoms: _93  and  _96
REMARK   38  A    between atoms: _96  and  _97
REMARK   39  A    between atoms: _97  and  _98
REMARK   40  A    between atoms: _98  and  _99
REMARK   41  A    between atoms: _99  and  _100
REMARK   42  A    between atoms: _104  and  _106
REMARK   43  A    between atoms: _106  and  _107
REMARK   44  A    between atoms: _106  and  _109
REMARK   45  A    between atoms: _109  and  _110
REMARK   46  A    between atoms: _115  and  _116
REMARK   47  A    between atoms: _118  and  _120
REMARK   48  A    between atoms: _120  and  _121
REMARK   49  A    between atoms: _120  and  _123
REMARK   50  A    between atoms: _123  and  _124
REMARK   51  A    between atoms: _127  and  _129
REMARK   52  A    between atoms: _129  and  _130
REMARK   53  A    between atoms: _129  and  _132
REMARK   54  A    between atoms: _132  and  _133
REMARK   55  A    between atoms: _136  and  _138
REMARK   56  A    between atoms: _138  and  _139
REMARK   57  A    between atoms: _138  and  _141
REMARK   58  A    between atoms: _144  and  _146
REMARK   59  A    between atoms: _146  and  _147
REMARK   60  A    between atoms: _146  and  _149
REMARK   61  A    between atoms: _149  and  _150
REMARK   62  A    between atoms: _155  and  _157
REMARK   63  A    between atoms: _157  and  _158
REMARK   64  A    between atoms: _157  and  _160
REMARK   65  A    between atoms: _160  and  _161
REMARK   66  A    between atoms: _161  and  _162
REMARK   67  A    between atoms: _165  and  _167
REMARK   68  A    between atoms: _167  and  _168
REMARK   69  A    between atoms: _167  and  _170
REMARK   70  A    between atoms: _170  and  _171
REMARK   71  A    between atoms: _174  and  _176
REMARK   72  A    between atoms: _176  and  _177
REMARK   73  A    between atoms: _180  and  _182
REMARK   74  A    between atoms: _182  and  _183
REMARK   75  A    between atoms: _185  and  _187
REMARK   76  A    between atoms: _187  and  _188
REMARK   77  A    between atoms: _187  and  _190
REMARK   78  A    between atoms: _190  and  _191
REMARK   79  A    between atoms: _194  and  _196
REMARK   80  A    between atoms: _196  and  _197
REMARK   81  A    between atoms: _200  and  _202
REMARK   82  A    between atoms: _202  and  _203
REMARK   83  A    between atoms: _202  and  _205
REMARK   84  A    between atoms: _205  and  _206
REMARK   85  A    between atoms: _206  and  _307
REMARK   86  A    between atoms: _207  and  _209
REMARK   87  A    between atoms: _209  and  _210
REMARK   88  A    between atoms: _209  and  _212
REMARK   89  A    between atoms: _212  and  _213
REMARK   90  A    between atoms: _213  and  _214
REMARK   91  A    between atoms: _217  and  _219
REMARK   92  A    between atoms: _219  and  _220
REMARK   93  A    between atoms: _222  and  _224
REMARK   94  A    between atoms: _224  and  _225
REMARK   95  A    between atoms: _224  and  _227
REMARK   96  A    between atoms: _227  and  _228
REMARK   97  A    between atoms: _231  and  _233
REMARK   98  A    between atoms: _233  and  _234
REMARK   99  A    between atoms: _233  and  _236
REMARK  100  A    between atoms: _236  and  _237
REMARK  101  A    between atoms: _239  and  _241
REMARK  102  A    between atoms: _241  and  _242
REMARK  103  A    between atoms: _244  and  _246
REMARK  104  A    between atoms: _246  and  _247
REMARK  105  A    between atoms: _249  and  _251
REMARK  106  A    between atoms: _251  and  _252
REMARK  107  A    between atoms: _251  and  _254
REMARK  108  A    between atoms: _257  and  _259
REMARK  109  A    between atoms: _259  and  _260
REMARK  110  A    between atoms: _259  and  _262
REMARK  111  A    between atoms: _262  and  _263
REMARK  112  A    between atoms: _265  and  _267
REMARK  113  A    between atoms: _267  and  _268
REMARK  114  A    between atoms: _267  and  _270
REMARK  115  A    between atoms: _270  and  _271
REMARK  116  A    between atoms: _281  and  _283
REMARK  117  A    between atoms: _283  and  _284
REMARK  118  A    between atoms: _286  and  _288
REMARK  119  A    between atoms: _288  and  _289
REMARK  120  A    between atoms: _288  and  _291
REMARK  121  A    between atoms: _291  and  _292
REMARK  122  A    between atoms: _292  and  _293
REMARK  123  A    between atoms: _296  and  _298
REMARK  124  A    between atoms: _298  and  _299
REMARK  125  A    between atoms: _301  and  _303
REMARK  126  A    between atoms: _303  and  _304
REMARK  127  A    between atoms: _303  and  _306
REMARK  128  A    between atoms: _306  and  _307
REMARK  129  A    between atoms: _308  and  _310
REMARK  130  A    between atoms: _310  and  _311
REMARK  131  A    between atoms: _310  and  _313
REMARK  132  A    between atoms: _313  and  _314
REMARK  133  A    between atoms: _317  and  _319
REMARK  134  A    between atoms: _319  and  _320
REMARK  135  A    between atoms: _319  and  _322
REMARK  136  A    between atoms: _322  and  _323
REMARK  137  A    between atoms: _323  and  _324
REMARK  138  A    between atoms: _324  and  _325
REMARK  139  A    between atoms: _334  and  _336
REMARK  140  A    between atoms: _336  and  _337
REMARK  141  A    between atoms: _336  and  _339
REMARK  142  A    between atoms: _339  and  _340
REMARK  143  A    between atoms: _340  and  _341
REMARK  144  A    between atoms: _341  and  _342
REMARK  145  A    between atoms: _342  and  _343
REMARK  146  A    between atoms: _347  and  _349
REMARK  147  A    between atoms: _349  and  _350
REMARK  148  A    between atoms: _349  and  _352
REMARK  149  A    between atoms: _352  and  _353
REMARK  150  A    between atoms: _358  and  _359
REMARK  151  A    between atoms: _361  and  _363
REMARK  152  A    between atoms: _363  and  _364
REMARK  153  A    between atoms: _366  and  _368
REMARK  154  A    between atoms: _368  and  _369
REMARK  155  A    between atoms: _368  and  _371
REMARK  156  A    between atoms: _371  and  _372
REMARK  157  A    between atoms: _378  and  _380
REMARK  158  A    between atoms: _380  and  _381
REMARK  159  A    between atoms: _380  and  _383
REMARK  160  A    between atoms: _383  and  _384
REMARK  161  A    between atoms: _389  and  _390
REMARK                            x       y       z     vdW  Elec       q    Type
REMARK                         _______ _______ _______ _____ _____    ______ ____
ROOT
ATOM      1  O   HOH     1      13.377 -14.321  29.589  0.00  0.00    +0.000 OA
ENDROOT
TORSDOF 0
REMARK  Name = ../refined-set-2016/1ghy/1ghy_pocket.pdb
REMARK  161 active torsions:
REMARK  status: ('A' for Active; 'I' for Inactive)
REMARK    1  A    between atoms: _1  and  _5
REMARK    2  A    between atoms: _5  and  _6
REMARK    3  A    between atoms: _5  and  _8
REMARK    4  A    between atoms: _8  and  _9
REMARK    5  A    between atoms: _12  and  _14
REMARK    6  A    between atoms: _14  and  _15
REMARK    7  A    between atoms: _14  and  _17
REMARK    8  A    between atoms: _20  and  _22
REMARK    9  A    between atoms: _22  and  _23
REMARK   10  A    between atoms: _22  and  _25
REMARK   11  A    between atoms: _25  and  _26
REMARK   12  A    between atoms: _29  and  _31
REMARK   13  A    between atoms: _31  and  _32
REMARK   14  A    between atoms: _31  and  _34
REMARK   15  A    between atoms: _34  and  _35
REMARK   16  A    between atoms: _35  and  _53
REMARK   17  A    between atoms: _36  and  _38
REMARK   18  A    between atoms: _38  and  _39
REMARK   19  A    between atoms: _38  and  _41
REMARK   20  A    between atoms: _41  and  _42
REMARK   21  A    between atoms: _47  and  _49
REMARK   22  A    between atoms: _49  and  _50
REMARK   23  A    between atoms: _49  and  _52
REMARK   24  A    between atoms: _52  and  _53
REMARK   25  A    between atoms: _54  and  _56
REMARK   26  A    between atoms: _56  and  _57
REMARK   27  A    between atoms: _56  and  _59
REMARK   28  A    between atoms: _59  and  _60
REMARK   29  A    between atoms: _65  and  _66
REMARK   30  A    between atoms: _69  and  _70
REMARK   31  A    between atoms: _75  and  _77
REMARK   32  A    between atoms: _77  and  _78
REMARK   33  A    between atoms: _77  and  _80
REMARK   34  A    between atoms: _80  and  _81
REMARK   35  A    between atoms: _91  and  _93
REMARK   36  A    between atoms: _93  and  _94
REMARK   37  A    between atoms: _93  and  _96
REMARK   38  A    between atoms: _96  and  _97
REMARK   39  A    between atoms: _97  and  _98
REMARK   40  A    between atoms: _98  and  _99
REMARK   41  A    between atoms: _99  and  _100
REMARK   42  A    between atoms: _104  and  _106
REMARK   43  A    between atoms: _106  and  _107
REMARK   44  A    between atoms: _106  and  _109
REMARK   45  A    between atoms: _109  and  _110
REMARK   46  A    between atoms: _115  and  _116
REMARK   47  A    between atoms: _118  and  _120
REMARK   48  A    between atoms: _120  and  _121
REMARK   49  A    between atoms: _120  and  _123
REMARK   50  A    between atoms: _123  and  _124
REMARK   51  A    between atoms: _127  and  _129
REMARK   52  A    between atoms: _129  and  _130
REMARK   53  A    between atoms: _129  and  _132
REMARK   54  A    between atoms: _132  and  _133
REMARK   55  A    between atoms: _136  and  _138
REMARK   56  A    between atoms: _138  and  _139
REMARK   57  A    between atoms: _138  and  _141
REMARK   58  A    between atoms: _144  and  _146
REMARK   59  A    between atoms: _146  and  _147
REMARK   60  A    between atoms: _146  and  _149
REMARK   61  A    between atoms: _149  and  _150
REMARK   62  A    between atoms: _155  and  _157
REMARK   63  A    between atoms: _157  and  _158
REMARK   64  A    between atoms: _157  and  _160
REMARK   65  A    between atoms: _160  and  _161
REMARK   66  A    between atoms: _161  and  _162
REMARK   67  A    between atoms: _165  and  _167
REMARK   68  A    between atoms: _167  and  _168
REMARK   69  A    between atoms: _167  and  _170
REMARK   70  A    between atoms: _170  and  _171
REMARK   71  A    between atoms: _174  and  _176
REMARK   72  A    between atoms: _176  and  _177
REMARK   73  A    between atoms: _180  and  _182
REMARK   74  A    between atoms: _182  and  _183
REMARK   75  A    between atoms: _185  and  _187
REMARK   76  A    between atoms: _187  and  _188
REMARK   77  A    between atoms: _187  and  _190
REMARK   78  A    between atoms: _190  and  _191
REMARK   79  A    between atoms: _194  and  _196
REMARK   80  A    between atoms: _196  and  _197
REMARK   81  A    between atoms: _200  and  _202
REMARK   82  A    between atoms: _202  and  _203
REMARK   83  A    between atoms: _202  and  _205
REMARK   84  A    between atoms: _205  and  _206
REMARK   85  A    between atoms: _206  and  _307
REMARK   86  A    between atoms: _207  and  _209
REMARK   87  A    between atoms: _209  and  _210
REMARK   88  A    between atoms: _209  and  _212
REMARK   89  A    between atoms: _212  and  _213
REMARK   90  A    between atoms: _213  and  _214
REMARK   91  A    between atoms: _217  and  _219
REMARK   92  A    between atoms: _219  and  _220
REMARK   93  A    between atoms: _222  and  _224
REMARK   94  A    between atoms: _224  and  _225
REMARK   95  A    between atoms: _224  and  _227
REMARK   96  A    between atoms: _227  and  _228
REMARK   97  A    between atoms: _231  and  _233
REMARK   98  A    between atoms: _233  and  _234
REMARK   99  A    between atoms: _233  and  _236
REMARK  100  A    between atoms: _236  and  _237
REMARK  101  A    between atoms: _239  and  _241
REMARK  102  A    between atoms: _241  and  _242
REMARK  103  A    between atoms: _244  and  _246
REMARK  104  A    between atoms: _246  and  _247
REMARK  105  A    between atoms: _249  and  _251
REMARK  106  A    between atoms: _251  and  _252
REMARK  107  A    between atoms: _251  and  _254
REMARK  108  A    between atoms: _257  and  _259
REMARK  109  A    between atoms: _259  and  _260
REMARK  110  A    between atoms: _259  and  _262
REMARK  111  A    between atoms: _262  and  _263
REMARK  112  A    between atoms: _265  and  _267
REMARK  113  A    between atoms: _267  and  _268
REMARK  114  A    between atoms: _267  and  _270
REMARK  115  A    between atoms: _270  and  _271
REMARK  116  A    between atoms: _281  and  _283
REMARK  117  A    between atoms: _283  and  _284
REMARK  118  A    between atoms: _286  and  _288
REMARK  119  A    between atoms: _288  and  _289
REMARK  120  A    between atoms: _288  and  _291
REMARK  121  A    between atoms: _291  and  _292
REMARK  122  A    between atoms: _292  and  _293
REMARK  123  A    between atoms: _296  and  _298
REMARK  124  A    between atoms: _298  and  _299
REMARK  125  A    between atoms: _301  and  _303
REMARK  126  A    between atoms: _303  and  _304
REMARK  127  A    between atoms: _303  and  _306
REMARK  128  A    between atoms: _306  and  _307
REMARK  129  A    between atoms: _308  and  _310
REMARK  130  A    between atoms: _310  and  _311
REMARK  131  A    between atoms: _310  and  _313
REMARK  132  A    between atoms: _313  and  _314
REMARK  133  A    between atoms: _317  and  _319
REMARK  134  A    between atoms: _319  and  _320
REMARK  135  A    between atoms: _319  and  _322
REMARK  136  A    between atoms: _322  and  _323
REMARK  137  A    between atoms: _323  and  _324
REMARK  138  A    between atoms: _324  and  _325
REMARK  139  A    between atoms: _334  and  _336
REMARK  140  A    between atoms: _336  and  _337
REMARK  141  A    between atoms: _336  and  _339
REMARK  142  A    between atoms: _339  and  _340
REMARK  143  A    between atoms: _340  and  _341
REMARK  144  A    between atoms: _341  and  _342
REMARK  145  A    between atoms: _342  and  _343
REMARK  146  A    between atoms: _347  and  _349
REMARK  147  A    between atoms: _349  and  _350
REMARK  148  A    between atoms: _349  and  _352
REMARK  149  A    between atoms: _352  and  _353
REMARK  150  A    between atoms: _358  and  _359
REMARK  151  A    between atoms: _361  and  _363
REMARK  152  A    between atoms: _363  and  _364
REMARK  153  A    between atoms: _366  and  _368
REMARK  154  A    between atoms: _368  and  _369
REMARK  155  A    between atoms: _368  and  _371
REMARK  156  A    between atoms: _371  and  _372
REMARK  157  A    between atoms: _378  and  _380
REMARK  158  A    between atoms: _380  and  _381
REMARK  159  A    between atoms: _380  and  _383
REMARK  160  A    between atoms: _383  and  _384
REMARK  161  A    between atoms: _389  and  _390
REMARK                            x       y       z     vdW  Elec       q    Type
REMARK                         _______ _______ _______ _____ _____    ______ ____
ROOT
ATOM      1  O   HOH     1      17.376 -14.737  13.496  0.00  0.00    +0.000 OA
ENDROOT
TORSDOF 0
REMARK  Name = ../refined-set-2016/1ghy/1ghy_pocket.pdb
REMARK  161 active torsions:
REMARK  status: ('A' for Active; 'I' for Inactive)
REMARK    1  A    between atoms: _1  and  _5
REMARK    2  A    between atoms: _5  and  _6
REMARK    3  A    between atoms: _5  and  _8
REMARK    4  A    between atoms: _8  and  _9
REMARK    5  A    between atoms: _12  and  _14
REMARK    6  A    between atoms: _14  and  _15
REMARK    7  A    between atoms: _14  and  _17
REMARK    8  A    between atoms: _20  and  _22
REMARK    9  A    between atoms: _22  and  _23
REMARK   10  A    between atoms: _22  and  _25
REMARK   11  A    between atoms: _25  and  _26
REMARK   12  A    between atoms: _29  and  _31
REMARK   13  A    between atoms: _31  and  _32
REMARK   14  A    between atoms: _31  and  _34
REMARK   15  A    between atoms: _34  and  _35
REMARK   16  A    between atoms: _35  and  _53
REMARK   17  A    between atoms: _36  and  _38
REMARK   18  A    between atoms: _38  and  _39
REMARK   19  A    between atoms: _38  and  _41
REMARK   20  A    between atoms: _41  and  _42
REMARK   21  A    between atoms: _47  and  _49
REMARK   22  A    between atoms: _49  and  _50
REMARK   23  A    between atoms: _49  and  _52
REMARK   24  A    between atoms: _52  and  _53
REMARK   25  A    between atoms: _54  and  _56
REMARK   26  A    between atoms: _56  and  _57
REMARK   27  A    between atoms: _56  and  _59
REMARK   28  A    between atoms: _59  and  _60
REMARK   29  A    between atoms: _65  and  _66
REMARK   30  A    between atoms: _69  and  _70
REMARK   31  A    between atoms: _75  and  _77
REMARK   32  A    between atoms: _77  and  _78
REMARK   33  A    between atoms: _77  and  _80
REMARK   34  A    between atoms: _80  and  _81
REMARK   35  A    between atoms: _91  and  _93
REMARK   36  A    between atoms: _93  and  _94
REMARK   37  A    between atoms: _93  and  _96
REMARK   38  A    between atoms: _96  and  _97
REMARK   39  A    between atoms: _97  and  _98
REMARK   40  A    between atoms: _98  and  _99
REMARK   41  A    between atoms: _99  and  _100
REMARK   42  A    between atoms: _104  and  _106
REMARK   43  A    between atoms: _106  and  _107
REMARK   44  A    between atoms: _106  and  _109
REMARK   45  A    between atoms: _109  and  _110
REMARK   46  A    between atoms: _115  and  _116
REMARK   47  A    between atoms: _118  and  _120
REMARK   48  A    between atoms: _120  and  _121
REMARK   49  A    between atoms: _120  and  _123
REMARK   50  A    between atoms: _123  and  _124
REMARK   51  A    between atoms: _127  and  _129
REMARK   52  A    between atoms: _129  and  _130
REMARK   53  A    between atoms: _129  and  _132
REMARK   54  A    between atoms: _132  and  _133
REMARK   55  A    between atoms: _136  and  _138
REMARK   56  A    between atoms: _138  and  _139
REMARK   57  A    between atoms: _138  and  _141
REMARK   58  A    between atoms: _144  and  _146
REMARK   59  A    between atoms: _146  and  _147
REMARK   60  A    between atoms: _146  and  _149
REMARK   61  A    between atoms: _149  and  _150
REMARK   62  A    between atoms: _155  and  _157
REMARK   63  A    between atoms: _157  and  _158
REMARK   64  A    between atoms: _157  and  _160
REMARK   65  A    between atoms: _160  and  _161
REMARK   66  A    between atoms: _161  and  _162
REMARK   67  A    between atoms: _165  and  _167
REMARK   68  A    between atoms: _167  and  _168
REMARK   69  A    between atoms: _167  and  _170
REMARK   70  A    between atoms: _170  and  _171
REMARK   71  A    between atoms: _174  and  _176
REMARK   72  A    between atoms: _176  and  _177
REMARK   73  A    between atoms: _180  and  _182
REMARK   74  A    between atoms: _182  and  _183
REMARK   75  A    between atoms: _185  and  _187
REMARK   76  A    between atoms: _187  and  _188
REMARK   77  A    between atoms: _187  and  _190
REMARK   78  A    between atoms: _190  and  _191
REMARK   79  A    between atoms: _194  and  _196
REMARK   80  A    between atoms: _196  and  _197
REMARK   81  A    between atoms: _200  and  _202
REMARK   82  A    between atoms: _202  and  _203
REMARK   83  A    between atoms: _202  and  _205
REMARK   84  A    between atoms: _205  and  _206
REMARK   85  A    between atoms: _206  and  _307
REMARK   86  A    between atoms: _207  and  _209
REMARK   87  A    between atoms: _209  and  _210
REMARK   88  A    between atoms: _209  and  _212
REMARK   89  A    between atoms: _212  and  _213
REMARK   90  A    between atoms: _213  and  _214
REMARK   91  A    between atoms: _217  and  _219
REMARK   92  A    between atoms: _219  and  _220
REMARK   93  A    between atoms: _222  and  _224
REMARK   94  A    between atoms: _224  and  _225
REMARK   95  A    between atoms: _224  and  _227
REMARK   96  A    between atoms: _227  and  _228
REMARK   97  A    between atoms: _231  and  _233
REMARK   98  A    between atoms: _233  and  _234
REMARK   99  A    between atoms: _233  and  _236
REMARK  100  A    between atoms: _236  and  _237
REMARK  101  A    between atoms: _239  and  _241
REMARK  102  A    between atoms: _241  and  _242
REMARK  103  A    between atoms: _244  and  _246
REMARK  104  A    between atoms: _246  and  _247
REMARK  105  A    between atoms: _249  and  _251
REMARK  106  A    between atoms: _251  and  _252
REMARK  107  A    between atoms: _251  and  _254
REMARK  108  A    between atoms: _257  and  _259
REMARK  109  A    between atoms: _259  and  _260
REMARK  110  A    between atoms: _259  and  _262
REMARK  111  A    between atoms: _262  and  _263
REMARK  112  A    between atoms: _265  and  _267
REMARK  113  A    between atoms: _267  and  _268
REMARK  114  A    between atoms: _267  and  _270
REMARK  115  A    between atoms: _270  and  _271
REMARK  116  A    between atoms: _281  and  _283
REMARK  117  A    between atoms: _283  and  _284
REMARK  118  A    between atoms: _286  and  _288
REMARK  119  A    between atoms: _288  and  _289
REMARK  120  A    between atoms: _288  and  _291
REMARK  121  A    between atoms: _291  and  _292
REMARK  122  A    between atoms: _292  and  _293
REMARK  123  A    between atoms: _296  and  _298
REMARK  124  A    between atoms: _298  and  _299
REMARK  125  A    between atoms: _301  and  _303
REMARK  126  A    between atoms: _303  and  _304
REMARK  127  A    between atoms: _303  and  _306
REMARK  128  A    between atoms: _306  and  _307
REMARK  129  A    between atoms: _308  and  _310
REMARK  130  A    between atoms: _310  and  _311
REMARK  131  A    between atoms: _310  and  _313
REMARK  132  A    between atoms: _313  and  _314
REMARK  133  A    between atoms: _317  and  _319
REMARK  134  A    between atoms: _319  and  _320
REMARK  135  A    between atoms: _319  and  _322
REMARK  136  A    between atoms: _322  and  _323
REMARK  137  A    between atoms: _323  and  _324
REMARK  138  A    between atoms: _324  and  _325
REMARK  139  A    between atoms: _334  and  _336
REMARK  140  A    between atoms: _336  and  _337
REMARK  141  A    between atoms: _336  and  _339
REMARK  142  A    between atoms: _339  and  _340
REMARK  143  A    between atoms: _340  and  _341
REMARK  144  A    between atoms: _341  and  _342
REMARK  145  A    between atoms: _342  and  _343
REMARK  146  A    between atoms: _347  and  _349
REMARK  147  A    between atoms: _349  and  _350
REMARK  148  A    between atoms: _349  and  _352
REMARK  149  A    between atoms: _352  and  _353
REMARK  150  A    between atoms: _358  and  _359
REMARK  151  A    between atoms: _361  and  _363
REMARK  152  A    between atoms: _363  and  _364
REMARK  153  A    between atoms: _366  and  _368
REMARK  154  A    between atoms: _368  and  _369
REMARK  155  A    between atoms: _368  and  _371
REMARK  156  A    between atoms: _371  and  _372
REMARK  157  A    between atoms: _378  and  _380
REMARK  158  A    between atoms: _380  and  _381
REMARK  159  A    between atoms: _380  and  _383
REMARK  160  A    between atoms: _383  and  _384
REMARK  161  A    between atoms: _389  and  _390
REMARK                            x       y       z     vdW  Elec       q    Type
REMARK                         _______ _______ _______ _____ _____    ______ ____
ROOT
ATOM      1  O   HOH     1      17.659 -10.302  14.563  0.00  0.00    +0.000 OA
ENDROOT
TORSDOF 0
REMARK  Name = ../refined-set-2016/1ghy/1ghy_pocket.pdb
REMARK  161 active torsions:
REMARK  status: ('A' for Active; 'I' for Inactive)
REMARK    1  A    between atoms: _1  and  _5
REMARK    2  A    between atoms: _5  and  _6
REMARK    3  A    between atoms: _5  and  _8
REMARK    4  A    between atoms: _8  and  _9
REMARK    5  A    between atoms: _12  and  _14
REMARK    6  A    between atoms: _14  and  _15
REMARK    7  A    between atoms: _14  and  _17
REMARK    8  A    between atoms: _20  and  _22
REMARK    9  A    between atoms: _22  and  _23
REMARK   10  A    between atoms: _22  and  _25
REMARK   11  A    between atoms: _25  and  _26
REMARK   12  A    between atoms: _29  and  _31
REMARK   13  A    between atoms: _31  and  _32
REMARK   14  A    between atoms: _31  and  _34
REMARK   15  A    between atoms: _34  and  _35
REMARK   16  A    between atoms: _35  and  _53
REMARK   17  A    between atoms: _36  and  _38
REMARK   18  A    between atoms: _38  and  _39
REMARK   19  A    between atoms: _38  and  _41
REMARK   20  A    between atoms: _41  and  _42
REMARK   21  A    between atoms: _47  and  _49
REMARK   22  A    between atoms: _49  and  _50
REMARK   23  A    between atoms: _49  and  _52
REMARK   24  A    between atoms: _52  and  _53
REMARK   25  A    between atoms: _54  and  _56
REMARK   26  A    between atoms: _56  and  _57
REMARK   27  A    between atoms: _56  and  _59
REMARK   28  A    between atoms: _59  and  _60
REMARK   29  A    between atoms: _65  and  _66
REMARK   30  A    between atoms: _69  and  _70
REMARK   31  A    between atoms: _75  and  _77
REMARK   32  A    between atoms: _77  and  _78
REMARK   33  A    between atoms: _77  and  _80
REMARK   34  A    between atoms: _80  and  _81
REMARK   35  A    between atoms: _91  and  _93
REMARK   36  A    between atoms: _93  and  _94
REMARK   37  A    between atoms: _93  and  _96
REMARK   38  A    between atoms: _96  and  _97
REMARK   39  A    between atoms: _97  and  _98
REMARK   40  A    between atoms: _98  and  _99
REMARK   41  A    between atoms: _99  and  _100
REMARK   42  A    between atoms: _104  and  _106
REMARK   43  A    between atoms: _106  and  _107
REMARK   44  A    between atoms: _106  and  _109
REMARK   45  A    between atoms: _109  and  _110
REMARK   46  A    between atoms: _115  and  _116
REMARK   47  A    between atoms: _118  and  _120
REMARK   48  A    between atoms: _120  and  _121
REMARK   49  A    between atoms: _120  and  _123
REMARK   50  A    between atoms: _123  and  _124
REMARK   51  A    between atoms: _127  and  _129
REMARK   52  A    between atoms: _129  and  _130
REMARK   53  A    between atoms: _129  and  _132
REMARK   54  A    between atoms: _132  and  _133
REMARK   55  A    between atoms: _136  and  _138
REMARK   56  A    between atoms: _138  and  _139
REMARK   57  A    between atoms: _138  and  _141
REMARK   58  A    between atoms: _144  and  _146
REMARK   59  A    between atoms: _146  and  _147
REMARK   60  A    between atoms: _146  and  _149
REMARK   61  A    between atoms: _149  and  _150
REMARK   62  A    between atoms: _155  and  _157
REMARK   63  A    between atoms: _157  and  _158
REMARK   64  A    between atoms: _157  and  _160
REMARK   65  A    between atoms: _160  and  _161
REMARK   66  A    between atoms: _161  and  _162
REMARK   67  A    between atoms: _165  and  _167
REMARK   68  A    between atoms: _167  and  _168
REMARK   69  A    between atoms: _167  and  _170
REMARK   70  A    between atoms: _170  and  _171
REMARK   71  A    between atoms: _174  and  _176
REMARK   72  A    between atoms: _176  and  _177
REMARK   73  A    between atoms: _180  and  _182
REMARK   74  A    between atoms: _182  and  _183
REMARK   75  A    between atoms: _185  and  _187
REMARK   76  A    between atoms: _187  and  _188
REMARK   77  A    between atoms: _187  and  _190
REMARK   78  A    between atoms: _190  and  _191
REMARK   79  A    between atoms: _194  and  _196
REMARK   80  A    between atoms: _196  and  _197
REMARK   81  A    between atoms: _200  and  _202
REMARK   82  A    between atoms: _202  and  _203
REMARK   83  A    between atoms: _202  and  _205
REMARK   84  A    between atoms: _205  and  _206
REMARK   85  A    between atoms: _206  and  _307
REMARK   86  A    between atoms: _207  and  _209
REMARK   87  A    between atoms: _209  and  _210
REMARK   88  A    between atoms: _209  and  _212
REMARK   89  A    between atoms: _212  and  _213
REMARK   90  A    between atoms: _213  and  _214
REMARK   91  A    between atoms: _217  and  _219
REMARK   92  A    between atoms: _219  and  _220
REMARK   93  A    between atoms: _222  and  _224
REMARK   94  A    between atoms: _224  and  _225
REMARK   95  A    between atoms: _224  and  _227
REMARK   96  A    between atoms: _227  and  _228
REMARK   97  A    between atoms: _231  and  _233
REMARK   98  A    between atoms: _233  and  _234
REMARK   99  A    between atoms: _233  and  _236
REMARK  100  A    between atoms: _236  and  _237
REMARK  101  A    between atoms: _239  and  _241
REMARK  102  A    between atoms: _241  and  _242
REMARK  103  A    between atoms: _244  and  _246
REMARK  104  A    between atoms: _246  and  _247
REMARK  105  A    between atoms: _249  and  _251
REMARK  106  A    between atoms: _251  and  _252
REMARK  107  A    between atoms: _251  and  _254
REMARK  108  A    between atoms: _257  and  _259
REMARK  109  A    between atoms: _259  and  _260
REMARK  110  A    between atoms: _259  and  _262
REMARK  111  A    between atoms: _262  and  _263
REMARK  112  A    between atoms: _265  and  _267
REMARK  113  A    between atoms: _267  and  _268
REMARK  114  A    between atoms: _267  and  _270
REMARK  115  A    between atoms: _270  and  _271
REMARK  116  A    between atoms: _281  and  _283
REMARK  117  A    between atoms: _283  and  _284
REMARK  118  A    between atoms: _286  and  _288
REMARK  119  A    between atoms: _288  and  _289
REMARK  120  A    between atoms: _288  and  _291
REMARK  121  A    between atoms: _291  and  _292
REMARK  122  A    between atoms: _292  and  _293
REMARK  123  A    between atoms: _296  and  _298
REMARK  124  A    between atoms: _298  and  _299
REMARK  125  A    between atoms: _301  and  _303
REMARK  126  A    between atoms: _303  and  _304
REMARK  127  A    between atoms: _303  and  _306
REMARK  128  A    between atoms: _306  and  _307
REMARK  129  A    between atoms: _308  and  _310
REMARK  130  A    between atoms: _310  and  _311
REMARK  131  A    between atoms: _310  and  _313
REMARK  132  A    between atoms: _313  and  _314
REMARK  133  A    between atoms: _317  and  _319
REMARK  134  A    between atoms: _319  and  _320
REMARK  135  A    between atoms: _319  and  _322
REMARK  136  A    between atoms: _322  and  _323
REMARK  137  A    between atoms: _323  and  _324
REMARK  138  A    between atoms: _324  and  _325
REMARK  139  A    between atoms: _334  and  _336
REMARK  140  A    between atoms: _336  and  _337
REMARK  141  A    between atoms: _336  and  _339
REMARK  142  A    between atoms: _339  and  _340
REMARK  143  A    between atoms: _340  and  _341
REMARK  144  A    between atoms: _341  and  _342
REMARK  145  A    between atoms: _342  and  _343
REMARK  146  A    between atoms: _347  and  _349
REMARK  147  A    between atoms: _349  and  _350
REMARK  148  A    between atoms: _349  and  _352
REMARK  149  A    between atoms: _352  and  _353
REMARK  150  A    between atoms: _358  and  _359
REMARK  151  A    between atoms: _361  and  _363
REMARK  152  A    between atoms: _363  and  _364
REMARK  153  A    between atoms: _366  and  _368
REMARK  154  A    between atoms: _368  and  _369
REMARK  155  A    between atoms: _368  and  _371
REMARK  156  A    between atoms: _371  and  _372
REMARK  157  A    between atoms: _378  and  _380
REMARK  158  A    between atoms: _380  and  _381
REMARK  159  A    between atoms: _380  and  _383
REMARK  160  A    between atoms: _383  and  _384
REMARK  161  A    between atoms: _389  and  _390
REMARK                            x       y       z     vdW  Elec       q    Type
REMARK                         _______ _______ _______ _____ _____    ______ ____
ROOT
ATOM      1  O   HOH     1      17.724 -19.930  25.326  0.00  0.00    +0.000 OA
ENDROOT
TORSDOF 0
REMARK  Name = ../refined-set-2016/1ghy/1ghy_pocket.pdb
REMARK  161 active torsions:
REMARK  status: ('A' for Active; 'I' for Inactive)
REMARK    1  A    between atoms: _1  and  _5
REMARK    2  A    between atoms: _5  and  _6
REMARK    3  A    between atoms: _5  and  _8
REMARK    4  A    between atoms: _8  and  _9
REMARK    5  A    between atoms: _12  and  _14
REMARK    6  A    between atoms: _14  and  _15
REMARK    7  A    between atoms: _14  and  _17
REMARK    8  A    between atoms: _20  and  _22
REMARK    9  A    between atoms: _22  and  _23
REMARK   10  A    between atoms: _22  and  _25
REMARK   11  A    between atoms: _25  and  _26
REMARK   12  A    between atoms: _29  and  _31
REMARK   13  A    between atoms: _31  and  _32
REMARK   14  A    between atoms: _31  and  _34
REMARK   15  A    between atoms: _34  and  _35
REMARK   16  A    between atoms: _35  and  _53
REMARK   17  A    between atoms: _36  and  _38
REMARK   18  A    between atoms: _38  and  _39
REMARK   19  A    between atoms: _38  and  _41
REMARK   20  A    between atoms: _41  and  _42
REMARK   21  A    between atoms: _47  and  _49
REMARK   22  A    between atoms: _49  and  _50
REMARK   23  A    between atoms: _49  and  _52
REMARK   24  A    between atoms: _52  and  _53
REMARK   25  A    between atoms: _54  and  _56
REMARK   26  A    between atoms: _56  and  _57
REMARK   27  A    between atoms: _56  and  _59
REMARK   28  A    between atoms: _59  and  _60
REMARK   29  A    between atoms: _65  and  _66
REMARK   30  A    between atoms: _69  and  _70
REMARK   31  A    between atoms: _75  and  _77
REMARK   32  A    between atoms: _77  and  _78
REMARK   33  A    between atoms: _77  and  _80
REMARK   34  A    between atoms: _80  and  _81
REMARK   35  A    between atoms: _91  and  _93
REMARK   36  A    between atoms: _93  and  _94
REMARK   37  A    between atoms: _93  and  _96
REMARK   38  A    between atoms: _96  and  _97
REMARK   39  A    between atoms: _97  and  _98
REMARK   40  A    between atoms: _98  and  _99
REMARK   41  A    between atoms: _99  and  _100
REMARK   42  A    between atoms: _104  and  _106
REMARK   43  A    between atoms: _106  and  _107
REMARK   44  A    between atoms: _106  and  _109
REMARK   45  A    between atoms: _109  and  _110
REMARK   46  A    between atoms: _115  and  _116
REMARK   47  A    between atoms: _118  and  _120
REMARK   48  A    between atoms: _120  and  _121
REMARK   49  A    between atoms: _120  and  _123
REMARK   50  A    between atoms: _123  and  _124
REMARK   51  A    between atoms: _127  and  _129
REMARK   52  A    between atoms: _129  and  _130
REMARK   53  A    between atoms: _129  and  _132
REMARK   54  A    between atoms: _132  and  _133
REMARK   55  A    between atoms: _136  and  _138
REMARK   56  A    between atoms: _138  and  _139
REMARK   57  A    between atoms: _138  and  _141
REMARK   58  A    between atoms: _144  and  _146
REMARK   59  A    between atoms: _146  and  _147
REMARK   60  A    between atoms: _146  and  _149
REMARK   61  A    between atoms: _149  and  _150
REMARK   62  A    between atoms: _155  and  _157
REMARK   63  A    between atoms: _157  and  _158
REMARK   64  A    between atoms: _157  and  _160
REMARK   65  A    between atoms: _160  and  _161
REMARK   66  A    between atoms: _161  and  _162
REMARK   67  A    between atoms: _165  and  _167
REMARK   68  A    between atoms: _167  and  _168
REMARK   69  A    between atoms: _167  and  _170
REMARK   70  A    between atoms: _170  and  _171
REMARK   71  A    between atoms: _174  and  _176
REMARK   72  A    between atoms: _176  and  _177
REMARK   73  A    between atoms: _180  and  _182
REMARK   74  A    between atoms: _182  and  _183
REMARK   75  A    between atoms: _185  and  _187
REMARK   76  A    between atoms: _187  and  _188
REMARK   77  A    between atoms: _187  and  _190
REMARK   78  A    between atoms: _190  and  _191
REMARK   79  A    between atoms: _194  and  _196
REMARK   80  A    between atoms: _196  and  _197
REMARK   81  A    between atoms: _200  and  _202
REMARK   82  A    between atoms: _202  and  _203
REMARK   83  A    between atoms: _202  and  _205
REMARK   84  A    between atoms: _205  and  _206
REMARK   85  A    between atoms: _206  and  _307
REMARK   86  A    between atoms: _207  and  _209
REMARK   87  A    between atoms: _209  and  _210
REMARK   88  A    between atoms: _209  and  _212
REMARK   89  A    between atoms: _212  and  _213
REMARK   90  A    between atoms: _213  and  _214
REMARK   91  A    between atoms: _217  and  _219
REMARK   92  A    between atoms: _219  and  _220
REMARK   93  A    between atoms: _222  and  _224
REMARK   94  A    between atoms: _224  and  _225
REMARK   95  A    between atoms: _224  and  _227
REMARK   96  A    between atoms: _227  and  _228
REMARK   97  A    between atoms: _231  and  _233
REMARK   98  A    between atoms: _233  and  _234
REMARK   99  A    between atoms: _233  and  _236
REMARK  100  A    between atoms: _236  and  _237
REMARK  101  A    between atoms: _239  and  _241
REMARK  102  A    between atoms: _241  and  _242
REMARK  103  A    between atoms: _244  and  _246
REMARK  104  A    between atoms: _246  and  _247
REMARK  105  A    between atoms: _249  and  _251
REMARK  106  A    between atoms: _251  and  _252
REMARK  107  A    between atoms: _251  and  _254
REMARK  108  A    between atoms: _257  and  _259
REMARK  109  A    between atoms: _259  and  _260
REMARK  110  A    between atoms: _259  and  _262
REMARK  111  A    between atoms: _262  and  _263
REMARK  112  A    between atoms: _265  and  _267
REMARK  113  A    between atoms: _267  and  _268
REMARK  114  A    between atoms: _267  and  _270
REMARK  115  A    between atoms: _270  and  _271
REMARK  116  A    between atoms: _281  and  _283
REMARK  117  A    between atoms: _283  and  _284
REMARK  118  A    between atoms: _286  and  _288
REMARK  119  A    between atoms: _288  and  _289
REMARK  120  A    between atoms: _288  and  _291
REMARK  121  A    between atoms: _291  and  _292
REMARK  122  A    between atoms: _292  and  _293
REMARK  123  A    between atoms: _296  and  _298
REMARK  124  A    between atoms: _298  and  _299
REMARK  125  A    between atoms: _301  and  _303
REMARK  126  A    between atoms: _303  and  _304
REMARK  127  A    between atoms: _303  and  _306
REMARK  128  A    between atoms: _306  and  _307
REMARK  129  A    between atoms: _308  and  _310
REMARK  130  A    between atoms: _310  and  _311
REMARK  131  A    between atoms: _310  and  _313
REMARK  132  A    between atoms: _313  and  _314
REMARK  133  A    between atoms: _317  and  _319
REMARK  134  A    between atoms: _319  and  _320
REMARK  135  A    between atoms: _319  and  _322
REMARK  136  A    between atoms: _322  and  _323
REMARK  137  A    between atoms: _323  and  _324
REMARK  138  A    between atoms: _324  and  _325
REMARK  139  A    between atoms: _334  and  _336
REMARK  140  A    between atoms: _336  and  _337
REMARK  141  A    between atoms: _336  and  _339
REMARK  142  A    between atoms: _339  and  _340
REMARK  143  A    between atoms: _340  and  _341
REMARK  144  A    between atoms: _341  and  _342
REMARK  145  A    between atoms: _342  and  _343
REMARK  146  A    between atoms: _347  and  _349
REMARK  147  A    between atoms: _349  and  _350
REMARK  148  A    between atoms: _349  and  _352
REMARK  149  A    between atoms: _352  and  _353
REMARK  150  A    between atoms: _358  and  _359
REMARK  151  A    between atoms: _361  and  _363
REMARK  152  A    between atoms: _363  and  _364
REMARK  153  A    between atoms: _366  and  _368
REMARK  154  A    between atoms: _368  and  _369
REMARK  155  A    between atoms: _368  and  _371
REMARK  156  A    between atoms: _371  and  _372
REMARK  157  A    between atoms: _378  and  _380
REMARK  158  A    between atoms: _380  and  _381
REMARK  159  A    between atoms: _380  and  _383
REMARK  160  A    between atoms: _383  and  _384
REMARK  161  A    between atoms: _389  and  _390
REMARK                            x       y       z     vdW  Elec       q    Type
REMARK                         _______ _______ _______ _____ _____    ______ ____
ROOT
ATOM      1  O   HOH     1      15.621 -20.229  25.508  0.00  0.00    +0.000 OA
ENDROOT
TORSDOF 0
