REMARK  Name = ../refined-set-2016/3t0d/3t0d_pocket.pdb
REMARK  175 active torsions:
REMARK  status: ('A' for Active; 'I' for Inactive)
REMARK    1  A    between atoms: _1  and  _3
REMARK    2  A    between atoms: _3  and  _4
REMARK    3  A    between atoms: _3  and  _6
REMARK    4  A    between atoms: _6  and  _7
REMARK    5  A    between atoms: _12  and  _13
REMARK    6  A    between atoms: _15  and  _17
REMARK    7  A    between atoms: _17  and  _18
REMARK    8  A    between atoms: _17  and  _20
REMARK    9  A    between atoms: _20  and  _21
REMARK   10  A    between atoms: _24  and  _26
REMARK   11  A    between atoms: _26  and  _27
REMARK   12  A    between atoms: _26  and  _29
REMARK   13  A    between atoms: _29  and  _30
REMARK   14  A    between atoms: _35  and  _37
REMARK   15  A    between atoms: _37  and  _38
REMARK   16  A    between atoms: _37  and  _40
REMARK   17  A    between atoms: _43  and  _45
REMARK   18  A    between atoms: _45  and  _46
REMARK   19  A    between atoms: _45  and  _48
REMARK   20  A    between atoms: _48  and  _49
REMARK   21  A    between atoms: _52  and  _54
REMARK   22  A    between atoms: _54  and  _55
REMARK   23  A    between atoms: _54  and  _57
REMARK   24  A    between atoms: _57  and  _58
REMARK   25  A    between atoms: _58  and  _59
REMARK   26  A    between atoms: _64  and  _66
REMARK   27  A    between atoms: _66  and  _67
REMARK   28  A    between atoms: _66  and  _69
REMARK   29  A    between atoms: _69  and  _70
REMARK   30  A    between atoms: _73  and  _75
REMARK   31  A    between atoms: _75  and  _76
REMARK   32  A    between atoms: _75  and  _78
REMARK   33  A    between atoms: _78  and  _79
REMARK   34  A    between atoms: _79  and  _80
REMARK   35  A    between atoms: _82  and  _84
REMARK   36  A    between atoms: _84  and  _85
REMARK   37  A    between atoms: _84  and  _87
REMARK   38  A    between atoms: _87  and  _88
REMARK   39  A    between atoms: _88  and  _89
REMARK   40  A    between atoms: _89  and  _90
REMARK   41  A    between atoms: _99  and  _101
REMARK   42  A    between atoms: _101  and  _102
REMARK   43  A    between atoms: _101  and  _104
REMARK   44  A    between atoms: _104  and  _105
REMARK   45  A    between atoms: _110  and  _112
REMARK   46  A    between atoms: _112  and  _113
REMARK   47  A    between atoms: _112  and  _115
REMARK   48  A    between atoms: _115  and  _116
REMARK   49  A    between atoms: _121  and  _123
REMARK   50  A    between atoms: _123  and  _124
REMARK   51  A    between atoms: _123  and  _126
REMARK   52  A    between atoms: _126  and  _127
REMARK   53  A    between atoms: _127  and  _128
REMARK   54  A    between atoms: _128  and  _129
REMARK   55  A    between atoms: _138  and  _140
REMARK   56  A    between atoms: _140  and  _141
REMARK   57  A    between atoms: _140  and  _143
REMARK   58  A    between atoms: _143  and  _144
REMARK   59  A    between atoms: _146  and  _148
REMARK   60  A    between atoms: _148  and  _149
REMARK   61  A    between atoms: _148  and  _151
REMARK   62  A    between atoms: _151  and  _152
REMARK   63  A    between atoms: _157  and  _159
REMARK   64  A    between atoms: _159  and  _160
REMARK   65  A    between atoms: _159  and  _162
REMARK   66  A    between atoms: _162  and  _163
REMARK   67  A    between atoms: _163  and  _164
REMARK   68  A    between atoms: _167  and  _169
REMARK   69  A    between atoms: _169  and  _170
REMARK   70  A    between atoms: _169  and  _172
REMARK   71  A    between atoms: _172  and  _173
REMARK   72  A    between atoms: _173  and  _174
REMARK   73  A    between atoms: _177  and  _179
REMARK   74  A    between atoms: _179  and  _180
REMARK   75  A    between atoms: _179  and  _182
REMARK   76  A    between atoms: _182  and  _183
REMARK   77  A    between atoms: _184  and  MG_424
REMARK   78  A    between atoms: _188  and  _190
REMARK   79  A    between atoms: _190  and  _191
REMARK   80  A    between atoms: _193  and  _195
REMARK   81  A    between atoms: _195  and  _196
REMARK   82  A    between atoms: _195  and  _198
REMARK   83  A    between atoms: _198  and  _199
REMARK   84  A    between atoms: _204  and  _206
REMARK   85  A    between atoms: _206  and  _207
REMARK   86  A    between atoms: _206  and  _209
REMARK   87  A    between atoms: _209  and  _210
REMARK   88  A    between atoms: _210  and  _211
REMARK   89  A    between atoms: _214  and  _216
REMARK   90  A    between atoms: _216  and  _217
REMARK   91  A    between atoms: _216  and  _219
REMARK   92  A    between atoms: _219  and  _220
REMARK   93  A    between atoms: _220  and  _221
REMARK   94  A    between atoms: _224  and  _226
REMARK   95  A    between atoms: _226  and  _227
REMARK   96  A    between atoms: _226  and  _229
REMARK   97  A    between atoms: _229  and  _230
REMARK   98  A    between atoms: _230  and  _231
REMARK   99  A    between atoms: _233  and  _235
REMARK  100  A    between atoms: _235  and  _236
REMARK  101  A    between atoms: _235  and  _238
REMARK  102  A    between atoms: _238  and  _239
REMARK  103  A    between atoms: _244  and  _245
REMARK  104  A    between atoms: _247  and  _249
REMARK  105  A    between atoms: _249  and  _250
REMARK  106  A    between atoms: _249  and  _252
REMARK  107  A    between atoms: _252  and  _253
REMARK  108  A    between atoms: _253  and  _254
REMARK  109  A    between atoms: _254  and  _255
REMARK  110  A    between atoms: _255  and  _256
REMARK  111  A    between atoms: _260  and  _262
REMARK  112  A    between atoms: _262  and  _263
REMARK  113  A    between atoms: _262  and  _265
REMARK  114  A    between atoms: _267  and  _269
REMARK  115  A    between atoms: _269  and  _270
REMARK  116  A    between atoms: _269  and  _272
REMARK  117  A    between atoms: _272  and  _273
REMARK  118  A    between atoms: _273  and  _274
REMARK  119  A    between atoms: _277  and  _279
REMARK  120  A    between atoms: _279  and  _280
REMARK  121  A    between atoms: _279  and  _282
REMARK  122  A    between atoms: _282  and  _283
REMARK  123  A    between atoms: _288  and  _290
REMARK  124  A    between atoms: _290  and  _291
REMARK  125  A    between atoms: _294  and  _296
REMARK  126  A    between atoms: _296  and  _297
REMARK  127  A    between atoms: _296  and  _299
REMARK  128  A    between atoms: _299  and  _300
REMARK  129  A    between atoms: _300  and  _301
REMARK  130  A    between atoms: _303  and  _305
REMARK  131  A    between atoms: _305  and  _306
REMARK  132  A    between atoms: _305  and  _308
REMARK  133  A    between atoms: _308  and  _309
REMARK  134  A    between atoms: _319  and  _321
REMARK  135  A    between atoms: _321  and  _322
REMARK  136  A    between atoms: _321  and  _324
REMARK  137  A    between atoms: _324  and  _325
REMARK  138  A    between atoms: _328  and  _330
REMARK  139  A    between atoms: _330  and  _331
REMARK  140  A    between atoms: _330  and  _333
REMARK  141  A    between atoms: _333  and  _334
REMARK  142  A    between atoms: _334  and  _335
REMARK  143  A    between atoms: _340  and  _342
REMARK  144  A    between atoms: _342  and  _343
REMARK  145  A    between atoms: _342  and  _345
REMARK  146  A    between atoms: _345  and  _346
REMARK  147  A    between atoms: _346  and  _347
REMARK  148  A    between atoms: _352  and  _354
REMARK  149  A    between atoms: _354  and  _355
REMARK  150  A    between atoms: _354  and  _357
REMARK  151  A    between atoms: _357  and  _358
REMARK  152  A    between atoms: _364  and  _366
REMARK  153  A    between atoms: _366  and  _367
REMARK  154  A    between atoms: _366  and  _369
REMARK  155  A    between atoms: _371  and  _373
REMARK  156  A    between atoms: _373  and  _374
REMARK  157  A    between atoms: _373  and  _376
REMARK  158  A    between atoms: _376  and  _377
REMARK  159  A    between atoms: _377  and  _378
REMARK  160  A    between atoms: _380  and  _382
REMARK  161  A    between atoms: _382  and  _383
REMARK  162  A    between atoms: _382  and  _385
REMARK  163  A    between atoms: _385  and  _386
REMARK  164  A    between atoms: _391  and  _393
REMARK  165  A    between atoms: _393  and  _394
REMARK  166  A    between atoms: _393  and  _396
REMARK  167  A    between atoms: _396  and  _397
REMARK  168  A    between atoms: _400  and  _402
REMARK  169  A    between atoms: _402  and  _403
REMARK  170  A    between atoms: _402  and  _405
REMARK  171  A    between atoms: _405  and  _406
REMARK  172  A    between atoms: _408  and  _410
REMARK  173  A    between atoms: _410  and  _411
REMARK  174  A    between atoms: _410  and  _413
REMARK  175  A    between atoms: _413  and  _414
REMARK                            x       y       z     vdW  Elec       q    Type
REMARK                         _______ _______ _______ _____ _____    ______ ____
ROOT
ATOM      1  CA  THR A   2     -14.858 -38.961 -27.235  0.00  0.00    +0.176 C 
ENDROOT
BRANCH   1   3
ATOM      2  C   TYR A   1     -14.116 -40.137 -29.233  0.00  0.00    +0.239 C 
ATOM      3  N   THR A   2     -13.868 -39.694 -28.007  0.00  0.00    -0.295 N 
ATOM      4  H   THR A   2     -12.935 -39.877 -27.585  0.00  0.00    +0.150 HD
ATOM      5  O   TYR A   1     -15.232 -40.108 -29.747  0.00  0.00    -0.274 OA
BRANCH   2   6
ATOM      6  CA  TYR A   1     -12.905 -40.678 -29.990  0.00  0.00    +0.149 C 
BRANCH   6   7
ATOM      7  N   TYR A   1     -12.878 -42.135 -30.069  0.00  0.00    -0.238 NA
ATOM      8  H   TYR A   1     -13.485 -42.642 -30.744  0.00  0.00    +0.142 HD
ENDBRANCH   6   7
BRANCH   6   9
ATOM      9  CB  TYR A   1     -12.743 -39.957 -31.338  0.00  0.00    +0.053 C 
BRANCH   9  10
ATOM     10  CG  TYR A   1     -12.949 -38.472 -31.133  0.00  0.00    -0.020 A 
ATOM     11  CD2 TYR A   1     -12.153 -37.765 -30.223  0.00  0.00    -0.001 A 
ATOM     12  CE2 TYR A   1     -12.363 -36.421 -29.980  0.00  0.00    +0.036 A 
ATOM     13  CZ  TYR A   1     -13.386 -35.763 -30.641  0.00  0.00    +0.134 A 
ATOM     14  CE1 TYR A   1     -14.198 -36.443 -31.540  0.00  0.00    +0.036 A 
ATOM     15  CD1 TYR A   1     -13.985 -37.793 -31.768  0.00  0.00    -0.001 A 
BRANCH  13  16
ATOM     16  OH  TYR A   1     -13.596 -34.425 -30.407  0.00  0.00    -0.506 OA
ATOM     17  HH  TYR A   1     -12.935 -34.099 -29.746  0.00  0.00    +0.292 HD
ENDBRANCH  13  16
ENDBRANCH   9  10
ENDBRANCH   6   9
ENDBRANCH   2   6
ENDBRANCH   1   3
BRANCH   1  18
ATOM     18  C   THR A   2     -14.240 -37.656 -26.726  0.00  0.00    +0.243 C 
ATOM     19  O   THR A   2     -13.041 -37.596 -26.429  0.00  0.00    -0.273 OA
ATOM     20  N   ASN A   3     -15.065 -36.617 -26.662  0.00  0.00    -0.297 N 
ATOM     21  H   ASN A   3     -16.066 -36.758 -26.908  0.00  0.00    +0.150 HD
BRANCH  20  22
ATOM     22  CA  ASN A   3     -14.625 -35.289 -26.262  0.00  0.00    +0.158 C 
BRANCH  22  23
ATOM     23  C   ASN A   3     -14.660 -35.116 -24.747  0.00  0.00    +0.241 C 
ATOM     24  O   ASN A   3     -13.623 -35.183 -24.092  0.00  0.00    -0.273 OA
ATOM     25  N   VAL A   4     -15.858 -34.905 -24.203  0.00  0.00    -0.298 N 
ATOM     26  H   VAL A   4     -16.696 -34.930 -24.818  0.00  0.00    +0.150 HD
BRANCH  25  27
ATOM     27  CA  VAL A   4     -16.043 -34.641 -22.783  0.00  0.00    +0.137 C 
BRANCH  27  28
ATOM     28  CB  VAL A   4     -17.098 -33.528 -22.553  0.00  0.00    +0.026 C 
ATOM     29  CG2 VAL A   4     -17.400 -33.355 -21.065  0.00  0.00    +0.002 C 
ATOM     30  CG1 VAL A   4     -16.630 -32.207 -23.172  0.00  0.00    +0.002 C 
ENDBRANCH  27  28
BRANCH  27  31
ATOM     31  C   VAL A   4     -16.439 -35.901 -22.011  0.00  0.00    +0.227 C 
ATOM     32  O   VAL A   4     -15.828 -36.236 -20.996  0.00  0.00    -0.286 OA
ENDBRANCH  27  31
ENDBRANCH  25  27
ENDBRANCH  22  23
BRANCH  22  33
ATOM     33  CB  ASN A   3     -15.471 -34.219 -26.969  0.00  0.00    +0.114 C 
BRANCH  33  34
ATOM     34  CG  ASN A   3     -15.203 -32.807 -26.457  0.00  0.00    +0.222 C 
ATOM     35  OD1 ASN A   3     -14.264 -32.565 -25.699  0.00  0.00    -0.275 OA
ATOM     36  ND2 ASN A   3     -16.046 -31.870 -26.866  0.00  0.00    -0.329 N 
ATOM     37 HD21 ASN A   3     -15.927 -30.888 -26.546  0.00  0.00    +0.145 HD
ATOM     38 HD22 ASN A   3     -16.827 -32.117 -27.507  0.00  0.00    +0.145 HD
ENDBRANCH  33  34
ENDBRANCH  22  33
ENDBRANCH  20  22
ENDBRANCH   1  18
BRANCH   1  39
ATOM     39  CB  THR A   2     -15.457 -39.813 -26.092  0.00  0.00    +0.137 C 
ATOM     40  CG2 THR A   2     -14.363 -40.357 -25.157  0.00  0.00    +0.034 C 
BRANCH  39  41
ATOM     41  OG1 THR A   2     -16.394 -39.027 -25.344  0.00  0.00    -0.382 OA
ATOM     42  HG1 THR A   2     -17.121 -38.723 -25.944  0.00  0.00    +0.210 HD
ENDBRANCH  39  41
ENDBRANCH   1  39
TORSDOF 16
REMARK  Name = ../refined-set-2016/3t0d/3t0d_pocket.pdb
REMARK  175 active torsions:
REMARK  status: ('A' for Active; 'I' for Inactive)
REMARK    1  A    between atoms: _1  and  _3
REMARK    2  A    between atoms: _3  and  _4
REMARK    3  A    between atoms: _3  and  _6
REMARK    4  A    between atoms: _6  and  _7
REMARK    5  A    between atoms: _12  and  _13
REMARK    6  A    between atoms: _15  and  _17
REMARK    7  A    between atoms: _17  and  _18
REMARK    8  A    between atoms: _17  and  _20
REMARK    9  A    between atoms: _20  and  _21
REMARK   10  A    between atoms: _24  and  _26
REMARK   11  A    between atoms: _26  and  _27
REMARK   12  A    between atoms: _26  and  _29
REMARK   13  A    between atoms: _29  and  _30
REMARK   14  A    between atoms: _35  and  _37
REMARK   15  A    between atoms: _37  and  _38
REMARK   16  A    between atoms: _37  and  _40
REMARK   17  A    between atoms: _43  and  _45
REMARK   18  A    between atoms: _45  and  _46
REMARK   19  A    between atoms: _45  and  _48
REMARK   20  A    between atoms: _48  and  _49
REMARK   21  A    between atoms: _52  and  _54
REMARK   22  A    between atoms: _54  and  _55
REMARK   23  A    between atoms: _54  and  _57
REMARK   24  A    between atoms: _57  and  _58
REMARK   25  A    between atoms: _58  and  _59
REMARK   26  A    between atoms: _64  and  _66
REMARK   27  A    between atoms: _66  and  _67
REMARK   28  A    between atoms: _66  and  _69
REMARK   29  A    between atoms: _69  and  _70
REMARK   30  A    between atoms: _73  and  _75
REMARK   31  A    between atoms: _75  and  _76
REMARK   32  A    between atoms: _75  and  _78
REMARK   33  A    between atoms: _78  and  _79
REMARK   34  A    between atoms: _79  and  _80
REMARK   35  A    between atoms: _82  and  _84
REMARK   36  A    between atoms: _84  and  _85
REMARK   37  A    between atoms: _84  and  _87
REMARK   38  A    between atoms: _87  and  _88
REMARK   39  A    between atoms: _88  and  _89
REMARK   40  A    between atoms: _89  and  _90
REMARK   41  A    between atoms: _99  and  _101
REMARK   42  A    between atoms: _101  and  _102
REMARK   43  A    between atoms: _101  and  _104
REMARK   44  A    between atoms: _104  and  _105
REMARK   45  A    between atoms: _110  and  _112
REMARK   46  A    between atoms: _112  and  _113
REMARK   47  A    between atoms: _112  and  _115
REMARK   48  A    between atoms: _115  and  _116
REMARK   49  A    between atoms: _121  and  _123
REMARK   50  A    between atoms: _123  and  _124
REMARK   51  A    between atoms: _123  and  _126
REMARK   52  A    between atoms: _126  and  _127
REMARK   53  A    between atoms: _127  and  _128
REMARK   54  A    between atoms: _128  and  _129
REMARK   55  A    between atoms: _138  and  _140
REMARK   56  A    between atoms: _140  and  _141
REMARK   57  A    between atoms: _140  and  _143
REMARK   58  A    between atoms: _143  and  _144
REMARK   59  A    between atoms: _146  and  _148
REMARK   60  A    between atoms: _148  and  _149
REMARK   61  A    between atoms: _148  and  _151
REMARK   62  A    between atoms: _151  and  _152
REMARK   63  A    between atoms: _157  and  _159
REMARK   64  A    between atoms: _159  and  _160
REMARK   65  A    between atoms: _159  and  _162
REMARK   66  A    between atoms: _162  and  _163
REMARK   67  A    between atoms: _163  and  _164
REMARK   68  A    between atoms: _167  and  _169
REMARK   69  A    between atoms: _169  and  _170
REMARK   70  A    between atoms: _169  and  _172
REMARK   71  A    between atoms: _172  and  _173
REMARK   72  A    between atoms: _173  and  _174
REMARK   73  A    between atoms: _177  and  _179
REMARK   74  A    between atoms: _179  and  _180
REMARK   75  A    between atoms: _179  and  _182
REMARK   76  A    between atoms: _182  and  _183
REMARK   77  A    between atoms: _184  and  MG_424
REMARK   78  A    between atoms: _188  and  _190
REMARK   79  A    between atoms: _190  and  _191
REMARK   80  A    between atoms: _193  and  _195
REMARK   81  A    between atoms: _195  and  _196
REMARK   82  A    between atoms: _195  and  _198
REMARK   83  A    between atoms: _198  and  _199
REMARK   84  A    between atoms: _204  and  _206
REMARK   85  A    between atoms: _206  and  _207
REMARK   86  A    between atoms: _206  and  _209
REMARK   87  A    between atoms: _209  and  _210
REMARK   88  A    between atoms: _210  and  _211
REMARK   89  A    between atoms: _214  and  _216
REMARK   90  A    between atoms: _216  and  _217
REMARK   91  A    between atoms: _216  and  _219
REMARK   92  A    between atoms: _219  and  _220
REMARK   93  A    between atoms: _220  and  _221
REMARK   94  A    between atoms: _224  and  _226
REMARK   95  A    between atoms: _226  and  _227
REMARK   96  A    between atoms: _226  and  _229
REMARK   97  A    between atoms: _229  and  _230
REMARK   98  A    between atoms: _230  and  _231
REMARK   99  A    between atoms: _233  and  _235
REMARK  100  A    between atoms: _235  and  _236
REMARK  101  A    between atoms: _235  and  _238
REMARK  102  A    between atoms: _238  and  _239
REMARK  103  A    between atoms: _244  and  _245
REMARK  104  A    between atoms: _247  and  _249
REMARK  105  A    between atoms: _249  and  _250
REMARK  106  A    between atoms: _249  and  _252
REMARK  107  A    between atoms: _252  and  _253
REMARK  108  A    between atoms: _253  and  _254
REMARK  109  A    between atoms: _254  and  _255
REMARK  110  A    between atoms: _255  and  _256
REMARK  111  A    between atoms: _260  and  _262
REMARK  112  A    between atoms: _262  and  _263
REMARK  113  A    between atoms: _262  and  _265
REMARK  114  A    between atoms: _267  and  _269
REMARK  115  A    between atoms: _269  and  _270
REMARK  116  A    between atoms: _269  and  _272
REMARK  117  A    between atoms: _272  and  _273
REMARK  118  A    between atoms: _273  and  _274
REMARK  119  A    between atoms: _277  and  _279
REMARK  120  A    between atoms: _279  and  _280
REMARK  121  A    between atoms: _279  and  _282
REMARK  122  A    between atoms: _282  and  _283
REMARK  123  A    between atoms: _288  and  _290
REMARK  124  A    between atoms: _290  and  _291
REMARK  125  A    between atoms: _294  and  _296
REMARK  126  A    between atoms: _296  and  _297
REMARK  127  A    between atoms: _296  and  _299
REMARK  128  A    between atoms: _299  and  _300
REMARK  129  A    between atoms: _300  and  _301
REMARK  130  A    between atoms: _303  and  _305
REMARK  131  A    between atoms: _305  and  _306
REMARK  132  A    between atoms: _305  and  _308
REMARK  133  A    between atoms: _308  and  _309
REMARK  134  A    between atoms: _319  and  _321
REMARK  135  A    between atoms: _321  and  _322
REMARK  136  A    between atoms: _321  and  _324
REMARK  137  A    between atoms: _324  and  _325
REMARK  138  A    between atoms: _328  and  _330
REMARK  139  A    between atoms: _330  and  _331
REMARK  140  A    between atoms: _330  and  _333
REMARK  141  A    between atoms: _333  and  _334
REMARK  142  A    between atoms: _334  and  _335
REMARK  143  A    between atoms: _340  and  _342
REMARK  144  A    between atoms: _342  and  _343
REMARK  145  A    between atoms: _342  and  _345
REMARK  146  A    between atoms: _345  and  _346
REMARK  147  A    between atoms: _346  and  _347
REMARK  148  A    between atoms: _352  and  _354
REMARK  149  A    between atoms: _354  and  _355
REMARK  150  A    between atoms: _354  and  _357
REMARK  151  A    between atoms: _357  and  _358
REMARK  152  A    between atoms: _364  and  _366
REMARK  153  A    between atoms: _366  and  _367
REMARK  154  A    between atoms: _366  and  _369
REMARK  155  A    between atoms: _371  and  _373
REMARK  156  A    between atoms: _373  and  _374
REMARK  157  A    between atoms: _373  and  _376
REMARK  158  A    between atoms: _376  and  _377
REMARK  159  A    between atoms: _377  and  _378
REMARK  160  A    between atoms: _380  and  _382
REMARK  161  A    between atoms: _382  and  _383
REMARK  162  A    between atoms: _382  and  _385
REMARK  163  A    between atoms: _385  and  _386
REMARK  164  A    between atoms: _391  and  _393
REMARK  165  A    between atoms: _393  and  _394
REMARK  166  A    between atoms: _393  and  _396
REMARK  167  A    between atoms: _396  and  _397
REMARK  168  A    between atoms: _400  and  _402
REMARK  169  A    between atoms: _402  and  _403
REMARK  170  A    between atoms: _402  and  _405
REMARK  171  A    between atoms: _405  and  _406
REMARK  172  A    between atoms: _408  and  _410
REMARK  173  A    between atoms: _410  and  _411
REMARK  174  A    between atoms: _410  and  _413
REMARK  175  A    between atoms: _413  and  _414
REMARK                            x       y       z     vdW  Elec       q    Type
REMARK                         _______ _______ _______ _____ _____    ______ ____
ROOT
ATOM      1  C   GLN A   2      -9.370 -35.090 -24.178  0.00  0.00    +0.241 C 
ATOM      2  O   GLN A   2      -9.603 -36.269 -24.479  0.00  0.00    -0.273 OA
ATOM      3  N   ASP A   3      -9.801 -34.043 -24.883  0.00  0.00    -0.297 N 
ATOM      4  H   ASP A   3      -9.596 -33.090 -24.522  0.00  0.00    +0.150 HD
ENDROOT
BRANCH   3   5
ATOM      5  CA  ASP A   3     -10.547 -34.162 -26.139  0.00  0.00    +0.160 C 
BRANCH   5   6
ATOM      6  C   ASP A   3      -9.643 -34.666 -27.270  0.00  0.00    +0.241 C 
ATOM      7  N   MET A   4      -9.506 -35.990 -27.329  0.00  0.00    -0.298 N 
ATOM      8  H   MET A   4     -10.080 -36.578 -26.691  0.00  0.00    +0.150 HD
ATOM      9  O   ASP A   3      -9.094 -33.886 -28.069  0.00  0.00    -0.273 OA
BRANCH   7  10
ATOM     10  CA  MET A   4      -8.589 -36.650 -28.246  0.00  0.00    +0.138 C 
BRANCH  10  11
ATOM     11  C   MET A   4      -8.907 -38.143 -28.306  0.00  0.00    +0.227 C 
ATOM     12  O   MET A   4      -9.655 -38.652 -27.471  0.00  0.00    -0.286 OA
ENDBRANCH  10  11
BRANCH  10  13
ATOM     13  CB  MET A   4      -7.133 -36.451 -27.794  0.00  0.00    +0.039 C 
BRANCH  13  14
ATOM     14  CG  MET A   4      -6.758 -37.128 -26.470  0.00  0.00    +0.060 C 
BRANCH  14  15
ATOM     15  SD  MET A   4      -5.050 -36.745 -26.005  0.00  0.00    -0.139 S 
ATOM     16  CE  MET A   4      -4.769 -37.877 -24.647  0.00  0.00    +0.069 C 
ENDBRANCH  14  15
ENDBRANCH  13  14
ENDBRANCH  10  13
ENDBRANCH   7  10
ENDBRANCH   5   6
BRANCH   5  17
ATOM     17  CB  ASP A   3     -11.184 -32.813 -26.489  0.00  0.00    +0.143 C 
BRANCH  17  18
ATOM     18  CG  ASP A   3     -11.943 -32.832 -27.806  0.00  0.00    +0.367 C 
ATOM     19  OD2 ASP A   3     -12.270 -31.740 -28.313  0.00  0.00    -0.246 OA
ATOM     20  OD1 ASP A   3     -12.222 -33.921 -28.341  0.00  0.00    -0.246 OA
ENDBRANCH  17  18
ENDBRANCH   5  17
ENDBRANCH   3   5
BRANCH   1  21
ATOM     21  CA  GLN A   2      -8.534 -34.753 -22.947  0.00  0.00    +0.149 C 
BRANCH  21  24
ATOM     22  C   ASP A   1      -9.973 -35.785 -21.245  0.00  0.00    +0.239 C 
ATOM     23  O   ASP A   1     -10.935 -35.055 -21.520  0.00  0.00    -0.274 OA
ATOM     24  N   GLN A   2      -8.788 -35.687 -21.848  0.00  0.00    -0.297 N 
ATOM     25  H   GLN A   2      -8.012 -36.299 -21.525  0.00  0.00    +0.150 HD
BRANCH  22  26
ATOM     26  CA  ASP A   1     -10.106 -36.881 -20.175  0.00  0.00    +0.156 C 
BRANCH  26  27
ATOM     27  N   ASP A   1      -8.914 -37.038 -19.342  0.00  0.00    -0.238 NA
ATOM     28  H   ASP A   1      -8.774 -36.393 -18.539  0.00  0.00    +0.142 HD
ENDBRANCH  26  27
BRANCH  26  29
ATOM     29  CB  ASP A   1     -11.330 -36.616 -19.291  0.00  0.00    +0.140 C 
BRANCH  29  30
ATOM     30  CG  ASP A   1     -12.645 -36.775 -20.045  0.00  0.00    +0.367 C 
ATOM     31  OD2 ASP A   1     -13.579 -35.989 -19.773  0.00  0.00    -0.246 OA
ATOM     32  OD1 ASP A   1     -12.736 -37.672 -20.909  0.00  0.00    -0.246 OA
ENDBRANCH  29  30
ENDBRANCH  26  29
ENDBRANCH  22  26
ENDBRANCH  21  24
BRANCH  21  33
ATOM     33  CB  GLN A   2      -7.054 -34.751 -23.340  0.00  0.00    +0.039 C 
BRANCH  33  34
ATOM     34  CG  GLN A   2      -6.119 -34.093 -22.336  0.00  0.00    +0.087 C 
BRANCH  34  35
ATOM     35  CD  GLN A   2      -5.608 -35.048 -21.267  0.00  0.00    +0.219 C 
ATOM     36  NE2 GLN A   2      -4.712 -34.555 -20.414  0.00  0.00    -0.329 N 
ATOM     37 HE21 GLN A   2      -4.324 -35.158 -19.661  0.00  0.00    +0.145 HD
ATOM     38 HE22 GLN A   2      -4.400 -33.567 -20.501  0.00  0.00    +0.145 HD
ATOM     39  OE1 GLN A   2      -6.010 -36.210 -21.207  0.00  0.00    -0.275 OA
ENDBRANCH  34  35
ENDBRANCH  33  34
ENDBRANCH  21  33
ENDBRANCH   1  21
TORSDOF 18
REMARK  Name = ../refined-set-2016/3t0d/3t0d_pocket.pdb
REMARK  175 active torsions:
REMARK  status: ('A' for Active; 'I' for Inactive)
REMARK    1  A    between atoms: _1  and  _3
REMARK    2  A    between atoms: _3  and  _4
REMARK    3  A    between atoms: _3  and  _6
REMARK    4  A    between atoms: _6  and  _7
REMARK    5  A    between atoms: _12  and  _13
REMARK    6  A    between atoms: _15  and  _17
REMARK    7  A    between atoms: _17  and  _18
REMARK    8  A    between atoms: _17  and  _20
REMARK    9  A    between atoms: _20  and  _21
REMARK   10  A    between atoms: _24  and  _26
REMARK   11  A    between atoms: _26  and  _27
REMARK   12  A    between atoms: _26  and  _29
REMARK   13  A    between atoms: _29  and  _30
REMARK   14  A    between atoms: _35  and  _37
REMARK   15  A    between atoms: _37  and  _38
REMARK   16  A    between atoms: _37  and  _40
REMARK   17  A    between atoms: _43  and  _45
REMARK   18  A    between atoms: _45  and  _46
REMARK   19  A    between atoms: _45  and  _48
REMARK   20  A    between atoms: _48  and  _49
REMARK   21  A    between atoms: _52  and  _54
REMARK   22  A    between atoms: _54  and  _55
REMARK   23  A    between atoms: _54  and  _57
REMARK   24  A    between atoms: _57  and  _58
REMARK   25  A    between atoms: _58  and  _59
REMARK   26  A    between atoms: _64  and  _66
REMARK   27  A    between atoms: _66  and  _67
REMARK   28  A    between atoms: _66  and  _69
REMARK   29  A    between atoms: _69  and  _70
REMARK   30  A    between atoms: _73  and  _75
REMARK   31  A    between atoms: _75  and  _76
REMARK   32  A    between atoms: _75  and  _78
REMARK   33  A    between atoms: _78  and  _79
REMARK   34  A    between atoms: _79  and  _80
REMARK   35  A    between atoms: _82  and  _84
REMARK   36  A    between atoms: _84  and  _85
REMARK   37  A    between atoms: _84  and  _87
REMARK   38  A    between atoms: _87  and  _88
REMARK   39  A    between atoms: _88  and  _89
REMARK   40  A    between atoms: _89  and  _90
REMARK   41  A    between atoms: _99  and  _101
REMARK   42  A    between atoms: _101  and  _102
REMARK   43  A    between atoms: _101  and  _104
REMARK   44  A    between atoms: _104  and  _105
REMARK   45  A    between atoms: _110  and  _112
REMARK   46  A    between atoms: _112  and  _113
REMARK   47  A    between atoms: _112  and  _115
REMARK   48  A    between atoms: _115  and  _116
REMARK   49  A    between atoms: _121  and  _123
REMARK   50  A    between atoms: _123  and  _124
REMARK   51  A    between atoms: _123  and  _126
REMARK   52  A    between atoms: _126  and  _127
REMARK   53  A    between atoms: _127  and  _128
REMARK   54  A    between atoms: _128  and  _129
REMARK   55  A    between atoms: _138  and  _140
REMARK   56  A    between atoms: _140  and  _141
REMARK   57  A    between atoms: _140  and  _143
REMARK   58  A    between atoms: _143  and  _144
REMARK   59  A    between atoms: _146  and  _148
REMARK   60  A    between atoms: _148  and  _149
REMARK   61  A    between atoms: _148  and  _151
REMARK   62  A    between atoms: _151  and  _152
REMARK   63  A    between atoms: _157  and  _159
REMARK   64  A    between atoms: _159  and  _160
REMARK   65  A    between atoms: _159  and  _162
REMARK   66  A    between atoms: _162  and  _163
REMARK   67  A    between atoms: _163  and  _164
REMARK   68  A    between atoms: _167  and  _169
REMARK   69  A    between atoms: _169  and  _170
REMARK   70  A    between atoms: _169  and  _172
REMARK   71  A    between atoms: _172  and  _173
REMARK   72  A    between atoms: _173  and  _174
REMARK   73  A    between atoms: _177  and  _179
REMARK   74  A    between atoms: _179  and  _180
REMARK   75  A    between atoms: _179  and  _182
REMARK   76  A    between atoms: _182  and  _183
REMARK   77  A    between atoms: _184  and  MG_424
REMARK   78  A    between atoms: _188  and  _190
REMARK   79  A    between atoms: _190  and  _191
REMARK   80  A    between atoms: _193  and  _195
REMARK   81  A    between atoms: _195  and  _196
REMARK   82  A    between atoms: _195  and  _198
REMARK   83  A    between atoms: _198  and  _199
REMARK   84  A    between atoms: _204  and  _206
REMARK   85  A    between atoms: _206  and  _207
REMARK   86  A    between atoms: _206  and  _209
REMARK   87  A    between atoms: _209  and  _210
REMARK   88  A    between atoms: _210  and  _211
REMARK   89  A    between atoms: _214  and  _216
REMARK   90  A    between atoms: _216  and  _217
REMARK   91  A    between atoms: _216  and  _219
REMARK   92  A    between atoms: _219  and  _220
REMARK   93  A    between atoms: _220  and  _221
REMARK   94  A    between atoms: _224  and  _226
REMARK   95  A    between atoms: _226  and  _227
REMARK   96  A    between atoms: _226  and  _229
REMARK   97  A    between atoms: _229  and  _230
REMARK   98  A    between atoms: _230  and  _231
REMARK   99  A    between atoms: _233  and  _235
REMARK  100  A    between atoms: _235  and  _236
REMARK  101  A    between atoms: _235  and  _238
REMARK  102  A    between atoms: _238  and  _239
REMARK  103  A    between atoms: _244  and  _245
REMARK  104  A    between atoms: _247  and  _249
REMARK  105  A    between atoms: _249  and  _250
REMARK  106  A    between atoms: _249  and  _252
REMARK  107  A    between atoms: _252  and  _253
REMARK  108  A    between atoms: _253  and  _254
REMARK  109  A    between atoms: _254  and  _255
REMARK  110  A    between atoms: _255  and  _256
REMARK  111  A    between atoms: _260  and  _262
REMARK  112  A    between atoms: _262  and  _263
REMARK  113  A    between atoms: _262  and  _265
REMARK  114  A    between atoms: _267  and  _269
REMARK  115  A    between atoms: _269  and  _270
REMARK  116  A    between atoms: _269  and  _272
REMARK  117  A    between atoms: _272  and  _273
REMARK  118  A    between atoms: _273  and  _274
REMARK  119  A    between atoms: _277  and  _279
REMARK  120  A    between atoms: _279  and  _280
REMARK  121  A    between atoms: _279  and  _282
REMARK  122  A    between atoms: _282  and  _283
REMARK  123  A    between atoms: _288  and  _290
REMARK  124  A    between atoms: _290  and  _291
REMARK  125  A    between atoms: _294  and  _296
REMARK  126  A    between atoms: _296  and  _297
REMARK  127  A    between atoms: _296  and  _299
REMARK  128  A    between atoms: _299  and  _300
REMARK  129  A    between atoms: _300  and  _301
REMARK  130  A    between atoms: _303  and  _305
REMARK  131  A    between atoms: _305  and  _306
REMARK  132  A    between atoms: _305  and  _308
REMARK  133  A    between atoms: _308  and  _309
REMARK  134  A    between atoms: _319  and  _321
REMARK  135  A    between atoms: _321  and  _322
REMARK  136  A    between atoms: _321  and  _324
REMARK  137  A    between atoms: _324  and  _325
REMARK  138  A    between atoms: _328  and  _330
REMARK  139  A    between atoms: _330  and  _331
REMARK  140  A    between atoms: _330  and  _333
REMARK  141  A    between atoms: _333  and  _334
REMARK  142  A    between atoms: _334  and  _335
REMARK  143  A    between atoms: _340  and  _342
REMARK  144  A    between atoms: _342  and  _343
REMARK  145  A    between atoms: _342  and  _345
REMARK  146  A    between atoms: _345  and  _346
REMARK  147  A    between atoms: _346  and  _347
REMARK  148  A    between atoms: _352  and  _354
REMARK  149  A    between atoms: _354  and  _355
REMARK  150  A    between atoms: _354  and  _357
REMARK  151  A    between atoms: _357  and  _358
REMARK  152  A    between atoms: _364  and  _366
REMARK  153  A    between atoms: _366  and  _367
REMARK  154  A    between atoms: _366  and  _369
REMARK  155  A    between atoms: _371  and  _373
REMARK  156  A    between atoms: _373  and  _374
REMARK  157  A    between atoms: _373  and  _376
REMARK  158  A    between atoms: _376  and  _377
REMARK  159  A    between atoms: _377  and  _378
REMARK  160  A    between atoms: _380  and  _382
REMARK  161  A    between atoms: _382  and  _383
REMARK  162  A    between atoms: _382  and  _385
REMARK  163  A    between atoms: _385  and  _386
REMARK  164  A    between atoms: _391  and  _393
REMARK  165  A    between atoms: _393  and  _394
REMARK  166  A    between atoms: _393  and  _396
REMARK  167  A    between atoms: _396  and  _397
REMARK  168  A    between atoms: _400  and  _402
REMARK  169  A    between atoms: _402  and  _403
REMARK  170  A    between atoms: _402  and  _405
REMARK  171  A    between atoms: _405  and  _406
REMARK  172  A    between atoms: _408  and  _410
REMARK  173  A    between atoms: _410  and  _411
REMARK  174  A    between atoms: _410  and  _413
REMARK  175  A    between atoms: _413  and  _414
REMARK                            x       y       z     vdW  Elec       q    Type
REMARK                         _______ _______ _______ _____ _____    ______ ____
ROOT
ATOM      1  NE  ARG A   1     -10.689 -39.373 -24.678  0.00  0.00    -0.265 N 
ATOM      2  CZ  ARG A   1     -11.345 -38.919 -23.615  0.00  0.00    +0.342 C 
ATOM      3  NH2 ARG A   1     -11.207 -39.509 -22.432  0.00  0.00    -0.292 N 
ATOM      4 HH21 ARG A   1     -11.725 -39.146 -21.606  0.00  0.00    +0.255 HD
ATOM      5 HH22 ARG A   1     -10.581 -40.334 -22.332  0.00  0.00    +0.255 HD
ATOM      6  NH1 ARG A   1     -12.131 -37.857 -23.730  0.00  0.00    -0.292 N 
ATOM      7 HH11 ARG A   1     -12.646 -37.499 -22.900  0.00  0.00    +0.255 HD
ATOM      8 HH12 ARG A   1     -12.232 -37.382 -24.650  0.00  0.00    +0.255 HD
ATOM      9  HE  ARG A   1     -10.813 -38.864 -25.576  0.00  0.00    +0.259 HD
ENDROOT
BRANCH   1  10
ATOM     10  CD  ARG A   1      -9.803 -40.540 -24.675  0.00  0.00    +0.174 C 
BRANCH  10  11
ATOM     11  CG  ARG A   1     -10.513 -41.779 -25.247  0.00  0.00    +0.045 C 
BRANCH  11  12
ATOM     12  CB  ARG A   1      -9.560 -42.958 -25.518  0.00  0.00    +0.029 C 
BRANCH  12  13
ATOM     13  CA  ARG A   1      -8.356 -42.645 -26.412  0.00  0.00    +0.133 C 
BRANCH  13  14
ATOM     14  N   ARG A   1      -8.745 -41.873 -27.581  0.00  0.00    -0.239 NA
ATOM     15  H   ARG A   1      -9.668 -42.056 -28.024  0.00  0.00    +0.142 HD
ENDBRANCH  13  14
BRANCH  13  16
ATOM     16  C   ARG A   1      -7.658 -43.914 -26.880  0.00  0.00    +0.224 C 
ATOM     17  O   ARG A   1      -8.266 -44.791 -27.521  0.00  0.00    -0.287 OA
ENDBRANCH  13  16
ENDBRANCH  12  13
ENDBRANCH  11  12
ENDBRANCH  10  11
ENDBRANCH   1  10
TORSDOF 6
REMARK  Name = ../refined-set-2016/3t0d/3t0d_pocket.pdb
REMARK  175 active torsions:
REMARK  status: ('A' for Active; 'I' for Inactive)
REMARK    1  A    between atoms: _1  and  _3
REMARK    2  A    between atoms: _3  and  _4
REMARK    3  A    between atoms: _3  and  _6
REMARK    4  A    between atoms: _6  and  _7
REMARK    5  A    between atoms: _12  and  _13
REMARK    6  A    between atoms: _15  and  _17
REMARK    7  A    between atoms: _17  and  _18
REMARK    8  A    between atoms: _17  and  _20
REMARK    9  A    between atoms: _20  and  _21
REMARK   10  A    between atoms: _24  and  _26
REMARK   11  A    between atoms: _26  and  _27
REMARK   12  A    between atoms: _26  and  _29
REMARK   13  A    between atoms: _29  and  _30
REMARK   14  A    between atoms: _35  and  _37
REMARK   15  A    between atoms: _37  and  _38
REMARK   16  A    between atoms: _37  and  _40
REMARK   17  A    between atoms: _43  and  _45
REMARK   18  A    between atoms: _45  and  _46
REMARK   19  A    between atoms: _45  and  _48
REMARK   20  A    between atoms: _48  and  _49
REMARK   21  A    between atoms: _52  and  _54
REMARK   22  A    between atoms: _54  and  _55
REMARK   23  A    between atoms: _54  and  _57
REMARK   24  A    between atoms: _57  and  _58
REMARK   25  A    between atoms: _58  and  _59
REMARK   26  A    between atoms: _64  and  _66
REMARK   27  A    between atoms: _66  and  _67
REMARK   28  A    between atoms: _66  and  _69
REMARK   29  A    between atoms: _69  and  _70
REMARK   30  A    between atoms: _73  and  _75
REMARK   31  A    between atoms: _75  and  _76
REMARK   32  A    between atoms: _75  and  _78
REMARK   33  A    between atoms: _78  and  _79
REMARK   34  A    between atoms: _79  and  _80
REMARK   35  A    between atoms: _82  and  _84
REMARK   36  A    between atoms: _84  and  _85
REMARK   37  A    between atoms: _84  and  _87
REMARK   38  A    between atoms: _87  and  _88
REMARK   39  A    between atoms: _88  and  _89
REMARK   40  A    between atoms: _89  and  _90
REMARK   41  A    between atoms: _99  and  _101
REMARK   42  A    between atoms: _101  and  _102
REMARK   43  A    between atoms: _101  and  _104
REMARK   44  A    between atoms: _104  and  _105
REMARK   45  A    between atoms: _110  and  _112
REMARK   46  A    between atoms: _112  and  _113
REMARK   47  A    between atoms: _112  and  _115
REMARK   48  A    between atoms: _115  and  _116
REMARK   49  A    between atoms: _121  and  _123
REMARK   50  A    between atoms: _123  and  _124
REMARK   51  A    between atoms: _123  and  _126
REMARK   52  A    between atoms: _126  and  _127
REMARK   53  A    between atoms: _127  and  _128
REMARK   54  A    between atoms: _128  and  _129
REMARK   55  A    between atoms: _138  and  _140
REMARK   56  A    between atoms: _140  and  _141
REMARK   57  A    between atoms: _140  and  _143
REMARK   58  A    between atoms: _143  and  _144
REMARK   59  A    between atoms: _146  and  _148
REMARK   60  A    between atoms: _148  and  _149
REMARK   61  A    between atoms: _148  and  _151
REMARK   62  A    between atoms: _151  and  _152
REMARK   63  A    between atoms: _157  and  _159
REMARK   64  A    between atoms: _159  and  _160
REMARK   65  A    between atoms: _159  and  _162
REMARK   66  A    between atoms: _162  and  _163
REMARK   67  A    between atoms: _163  and  _164
REMARK   68  A    between atoms: _167  and  _169
REMARK   69  A    between atoms: _169  and  _170
REMARK   70  A    between atoms: _169  and  _172
REMARK   71  A    between atoms: _172  and  _173
REMARK   72  A    between atoms: _173  and  _174
REMARK   73  A    between atoms: _177  and  _179
REMARK   74  A    between atoms: _179  and  _180
REMARK   75  A    between atoms: _179  and  _182
REMARK   76  A    between atoms: _182  and  _183
REMARK   77  A    between atoms: _184  and  MG_424
REMARK   78  A    between atoms: _188  and  _190
REMARK   79  A    between atoms: _190  and  _191
REMARK   80  A    between atoms: _193  and  _195
REMARK   81  A    between atoms: _195  and  _196
REMARK   82  A    between atoms: _195  and  _198
REMARK   83  A    between atoms: _198  and  _199
REMARK   84  A    between atoms: _204  and  _206
REMARK   85  A    between atoms: _206  and  _207
REMARK   86  A    between atoms: _206  and  _209
REMARK   87  A    between atoms: _209  and  _210
REMARK   88  A    between atoms: _210  and  _211
REMARK   89  A    between atoms: _214  and  _216
REMARK   90  A    between atoms: _216  and  _217
REMARK   91  A    between atoms: _216  and  _219
REMARK   92  A    between atoms: _219  and  _220
REMARK   93  A    between atoms: _220  and  _221
REMARK   94  A    between atoms: _224  and  _226
REMARK   95  A    between atoms: _226  and  _227
REMARK   96  A    between atoms: _226  and  _229
REMARK   97  A    between atoms: _229  and  _230
REMARK   98  A    between atoms: _230  and  _231
REMARK   99  A    between atoms: _233  and  _235
REMARK  100  A    between atoms: _235  and  _236
REMARK  101  A    between atoms: _235  and  _238
REMARK  102  A    between atoms: _238  and  _239
REMARK  103  A    between atoms: _244  and  _245
REMARK  104  A    between atoms: _247  and  _249
REMARK  105  A    between atoms: _249  and  _250
REMARK  106  A    between atoms: _249  and  _252
REMARK  107  A    between atoms: _252  and  _253
REMARK  108  A    between atoms: _253  and  _254
REMARK  109  A    between atoms: _254  and  _255
REMARK  110  A    between atoms: _255  and  _256
REMARK  111  A    between atoms: _260  and  _262
REMARK  112  A    between atoms: _262  and  _263
REMARK  113  A    between atoms: _262  and  _265
REMARK  114  A    between atoms: _267  and  _269
REMARK  115  A    between atoms: _269  and  _270
REMARK  116  A    between atoms: _269  and  _272
REMARK  117  A    between atoms: _272  and  _273
REMARK  118  A    between atoms: _273  and  _274
REMARK  119  A    between atoms: _277  and  _279
REMARK  120  A    between atoms: _279  and  _280
REMARK  121  A    between atoms: _279  and  _282
REMARK  122  A    between atoms: _282  and  _283
REMARK  123  A    between atoms: _288  and  _290
REMARK  124  A    between atoms: _290  and  _291
REMARK  125  A    between atoms: _294  and  _296
REMARK  126  A    between atoms: _296  and  _297
REMARK  127  A    between atoms: _296  and  _299
REMARK  128  A    between atoms: _299  and  _300
REMARK  129  A    between atoms: _300  and  _301
REMARK  130  A    between atoms: _303  and  _305
REMARK  131  A    between atoms: _305  and  _306
REMARK  132  A    between atoms: _305  and  _308
REMARK  133  A    between atoms: _308  and  _309
REMARK  134  A    between atoms: _319  and  _321
REMARK  135  A    between atoms: _321  and  _322
REMARK  136  A    between atoms: _321  and  _324
REMARK  137  A    between atoms: _324  and  _325
REMARK  138  A    between atoms: _328  and  _330
REMARK  139  A    between atoms: _330  and  _331
REMARK  140  A    between atoms: _330  and  _333
REMARK  141  A    between atoms: _333  and  _334
REMARK  142  A    between atoms: _334  and  _335
REMARK  143  A    between atoms: _340  and  _342
REMARK  144  A    between atoms: _342  and  _343
REMARK  145  A    between atoms: _342  and  _345
REMARK  146  A    between atoms: _345  and  _346
REMARK  147  A    between atoms: _346  and  _347
REMARK  148  A    between atoms: _352  and  _354
REMARK  149  A    between atoms: _354  and  _355
REMARK  150  A    between atoms: _354  and  _357
REMARK  151  A    between atoms: _357  and  _358
REMARK  152  A    between atoms: _364  and  _366
REMARK  153  A    between atoms: _366  and  _367
REMARK  154  A    between atoms: _366  and  _369
REMARK  155  A    between atoms: _371  and  _373
REMARK  156  A    between atoms: _373  and  _374
REMARK  157  A    between atoms: _373  and  _376
REMARK  158  A    between atoms: _376  and  _377
REMARK  159  A    between atoms: _377  and  _378
REMARK  160  A    between atoms: _380  and  _382
REMARK  161  A    between atoms: _382  and  _383
REMARK  162  A    between atoms: _382  and  _385
REMARK  163  A    between atoms: _385  and  _386
REMARK  164  A    between atoms: _391  and  _393
REMARK  165  A    between atoms: _393  and  _394
REMARK  166  A    between atoms: _393  and  _396
REMARK  167  A    between atoms: _396  and  _397
REMARK  168  A    between atoms: _400  and  _402
REMARK  169  A    between atoms: _402  and  _403
REMARK  170  A    between atoms: _402  and  _405
REMARK  171  A    between atoms: _405  and  _406
REMARK  172  A    between atoms: _408  and  _410
REMARK  173  A    between atoms: _410  and  _411
REMARK  174  A    between atoms: _410  and  _413
REMARK  175  A    between atoms: _413  and  _414
REMARK                            x       y       z     vdW  Elec       q    Type
REMARK                         _______ _______ _______ _____ _____    ______ ____
ROOT
ATOM      1  CB  ASN A   1      -3.438 -25.892 -28.804  0.00  0.00    +0.110 C 
ENDROOT
BRANCH   1   2
ATOM      2  CG  ASN A   1      -3.812 -24.928 -27.696  0.00  0.00    +0.221 C 
ATOM      3  OD1 ASN A   1      -3.644 -25.233 -26.515  0.00  0.00    -0.275 OA
ATOM      4  ND2 ASN A   1      -4.346 -23.764 -28.068  0.00  0.00    -0.329 N 
ATOM      5 HD21 ASN A   1      -4.639 -23.073 -27.348  0.00  0.00    +0.145 HD
ATOM      6 HD22 ASN A   1      -4.470 -23.548 -29.078  0.00  0.00    +0.145 HD
ENDBRANCH   1   2
BRANCH   1   7
ATOM      7  CA  ASN A   1      -2.046 -25.636 -29.376  0.00  0.00    +0.142 C 
BRANCH   7   8
ATOM      8  N   ASN A   1      -2.003 -24.392 -30.131  0.00  0.00    -0.239 NA
ATOM      9  H   ASN A   1      -2.893 -23.976 -30.472  0.00  0.00    +0.142 HD
ENDBRANCH   7   8
BRANCH   7  10
ATOM     10  C   ASN A   1      -1.668 -26.776 -30.313  0.00  0.00    +0.225 C 
ATOM     11  O   ASN A   1      -2.078 -26.790 -31.481  0.00  0.00    -0.287 OA
ENDBRANCH   7  10
ENDBRANCH   1   7
TORSDOF 4
REMARK  Name = ../refined-set-2016/3t0d/3t0d_pocket.pdb
REMARK  175 active torsions:
REMARK  status: ('A' for Active; 'I' for Inactive)
REMARK    1  A    between atoms: _1  and  _3
REMARK    2  A    between atoms: _3  and  _4
REMARK    3  A    between atoms: _3  and  _6
REMARK    4  A    between atoms: _6  and  _7
REMARK    5  A    between atoms: _12  and  _13
REMARK    6  A    between atoms: _15  and  _17
REMARK    7  A    between atoms: _17  and  _18
REMARK    8  A    between atoms: _17  and  _20
REMARK    9  A    between atoms: _20  and  _21
REMARK   10  A    between atoms: _24  and  _26
REMARK   11  A    between atoms: _26  and  _27
REMARK   12  A    between atoms: _26  and  _29
REMARK   13  A    between atoms: _29  and  _30
REMARK   14  A    between atoms: _35  and  _37
REMARK   15  A    between atoms: _37  and  _38
REMARK   16  A    between atoms: _37  and  _40
REMARK   17  A    between atoms: _43  and  _45
REMARK   18  A    between atoms: _45  and  _46
REMARK   19  A    between atoms: _45  and  _48
REMARK   20  A    between atoms: _48  and  _49
REMARK   21  A    between atoms: _52  and  _54
REMARK   22  A    between atoms: _54  and  _55
REMARK   23  A    between atoms: _54  and  _57
REMARK   24  A    between atoms: _57  and  _58
REMARK   25  A    between atoms: _58  and  _59
REMARK   26  A    between atoms: _64  and  _66
REMARK   27  A    between atoms: _66  and  _67
REMARK   28  A    between atoms: _66  and  _69
REMARK   29  A    between atoms: _69  and  _70
REMARK   30  A    between atoms: _73  and  _75
REMARK   31  A    between atoms: _75  and  _76
REMARK   32  A    between atoms: _75  and  _78
REMARK   33  A    between atoms: _78  and  _79
REMARK   34  A    between atoms: _79  and  _80
REMARK   35  A    between atoms: _82  and  _84
REMARK   36  A    between atoms: _84  and  _85
REMARK   37  A    between atoms: _84  and  _87
REMARK   38  A    between atoms: _87  and  _88
REMARK   39  A    between atoms: _88  and  _89
REMARK   40  A    between atoms: _89  and  _90
REMARK   41  A    between atoms: _99  and  _101
REMARK   42  A    between atoms: _101  and  _102
REMARK   43  A    between atoms: _101  and  _104
REMARK   44  A    between atoms: _104  and  _105
REMARK   45  A    between atoms: _110  and  _112
REMARK   46  A    between atoms: _112  and  _113
REMARK   47  A    between atoms: _112  and  _115
REMARK   48  A    between atoms: _115  and  _116
REMARK   49  A    between atoms: _121  and  _123
REMARK   50  A    between atoms: _123  and  _124
REMARK   51  A    between atoms: _123  and  _126
REMARK   52  A    between atoms: _126  and  _127
REMARK   53  A    between atoms: _127  and  _128
REMARK   54  A    between atoms: _128  and  _129
REMARK   55  A    between atoms: _138  and  _140
REMARK   56  A    between atoms: _140  and  _141
REMARK   57  A    between atoms: _140  and  _143
REMARK   58  A    between atoms: _143  and  _144
REMARK   59  A    between atoms: _146  and  _148
REMARK   60  A    between atoms: _148  and  _149
REMARK   61  A    between atoms: _148  and  _151
REMARK   62  A    between atoms: _151  and  _152
REMARK   63  A    between atoms: _157  and  _159
REMARK   64  A    between atoms: _159  and  _160
REMARK   65  A    between atoms: _159  and  _162
REMARK   66  A    between atoms: _162  and  _163
REMARK   67  A    between atoms: _163  and  _164
REMARK   68  A    between atoms: _167  and  _169
REMARK   69  A    between atoms: _169  and  _170
REMARK   70  A    between atoms: _169  and  _172
REMARK   71  A    between atoms: _172  and  _173
REMARK   72  A    between atoms: _173  and  _174
REMARK   73  A    between atoms: _177  and  _179
REMARK   74  A    between atoms: _179  and  _180
REMARK   75  A    between atoms: _179  and  _182
REMARK   76  A    between atoms: _182  and  _183
REMARK   77  A    between atoms: _184  and  MG_424
REMARK   78  A    between atoms: _188  and  _190
REMARK   79  A    between atoms: _190  and  _191
REMARK   80  A    between atoms: _193  and  _195
REMARK   81  A    between atoms: _195  and  _196
REMARK   82  A    between atoms: _195  and  _198
REMARK   83  A    between atoms: _198  and  _199
REMARK   84  A    between atoms: _204  and  _206
REMARK   85  A    between atoms: _206  and  _207
REMARK   86  A    between atoms: _206  and  _209
REMARK   87  A    between atoms: _209  and  _210
REMARK   88  A    between atoms: _210  and  _211
REMARK   89  A    between atoms: _214  and  _216
REMARK   90  A    between atoms: _216  and  _217
REMARK   91  A    between atoms: _216  and  _219
REMARK   92  A    between atoms: _219  and  _220
REMARK   93  A    between atoms: _220  and  _221
REMARK   94  A    between atoms: _224  and  _226
REMARK   95  A    between atoms: _226  and  _227
REMARK   96  A    between atoms: _226  and  _229
REMARK   97  A    between atoms: _229  and  _230
REMARK   98  A    between atoms: _230  and  _231
REMARK   99  A    between atoms: _233  and  _235
REMARK  100  A    between atoms: _235  and  _236
REMARK  101  A    between atoms: _235  and  _238
REMARK  102  A    between atoms: _238  and  _239
REMARK  103  A    between atoms: _244  and  _245
REMARK  104  A    between atoms: _247  and  _249
REMARK  105  A    between atoms: _249  and  _250
REMARK  106  A    between atoms: _249  and  _252
REMARK  107  A    between atoms: _252  and  _253
REMARK  108  A    between atoms: _253  and  _254
REMARK  109  A    between atoms: _254  and  _255
REMARK  110  A    between atoms: _255  and  _256
REMARK  111  A    between atoms: _260  and  _262
REMARK  112  A    between atoms: _262  and  _263
REMARK  113  A    between atoms: _262  and  _265
REMARK  114  A    between atoms: _267  and  _269
REMARK  115  A    between atoms: _269  and  _270
REMARK  116  A    between atoms: _269  and  _272
REMARK  117  A    between atoms: _272  and  _273
REMARK  118  A    between atoms: _273  and  _274
REMARK  119  A    between atoms: _277  and  _279
REMARK  120  A    between atoms: _279  and  _280
REMARK  121  A    between atoms: _279  and  _282
REMARK  122  A    between atoms: _282  and  _283
REMARK  123  A    between atoms: _288  and  _290
REMARK  124  A    between atoms: _290  and  _291
REMARK  125  A    between atoms: _294  and  _296
REMARK  126  A    between atoms: _296  and  _297
REMARK  127  A    between atoms: _296  and  _299
REMARK  128  A    between atoms: _299  and  _300
REMARK  129  A    between atoms: _300  and  _301
REMARK  130  A    between atoms: _303  and  _305
REMARK  131  A    between atoms: _305  and  _306
REMARK  132  A    between atoms: _305  and  _308
REMARK  133  A    between atoms: _308  and  _309
REMARK  134  A    between atoms: _319  and  _321
REMARK  135  A    between atoms: _321  and  _322
REMARK  136  A    between atoms: _321  and  _324
REMARK  137  A    between atoms: _324  and  _325
REMARK  138  A    between atoms: _328  and  _330
REMARK  139  A    between atoms: _330  and  _331
REMARK  140  A    between atoms: _330  and  _333
REMARK  141  A    between atoms: _333  and  _334
REMARK  142  A    between atoms: _334  and  _335
REMARK  143  A    between atoms: _340  and  _342
REMARK  144  A    between atoms: _342  and  _343
REMARK  145  A    between atoms: _342  and  _345
REMARK  146  A    between atoms: _345  and  _346
REMARK  147  A    between atoms: _346  and  _347
REMARK  148  A    between atoms: _352  and  _354
REMARK  149  A    between atoms: _354  and  _355
REMARK  150  A    between atoms: _354  and  _357
REMARK  151  A    between atoms: _357  and  _358
REMARK  152  A    between atoms: _364  and  _366
REMARK  153  A    between atoms: _366  and  _367
REMARK  154  A    between atoms: _366  and  _369
REMARK  155  A    between atoms: _371  and  _373
REMARK  156  A    between atoms: _373  and  _374
REMARK  157  A    between atoms: _373  and  _376
REMARK  158  A    between atoms: _376  and  _377
REMARK  159  A    between atoms: _377  and  _378
REMARK  160  A    between atoms: _380  and  _382
REMARK  161  A    between atoms: _382  and  _383
REMARK  162  A    between atoms: _382  and  _385
REMARK  163  A    between atoms: _385  and  _386
REMARK  164  A    between atoms: _391  and  _393
REMARK  165  A    between atoms: _393  and  _394
REMARK  166  A    between atoms: _393  and  _396
REMARK  167  A    between atoms: _396  and  _397
REMARK  168  A    between atoms: _400  and  _402
REMARK  169  A    between atoms: _402  and  _403
REMARK  170  A    between atoms: _402  and  _405
REMARK  171  A    between atoms: _405  and  _406
REMARK  172  A    between atoms: _408  and  _410
REMARK  173  A    between atoms: _410  and  _411
REMARK  174  A    between atoms: _410  and  _413
REMARK  175  A    between atoms: _413  and  _414
REMARK                            x       y       z     vdW  Elec       q    Type
REMARK                         _______ _______ _______ _____ _____    ______ ____
ROOT
ATOM      1  CB  HIS A   1      -2.764 -33.110 -30.050  0.00  0.00    +0.072 C 
ENDROOT
BRANCH   1   2
ATOM      2  CG  HIS A   1      -3.777 -32.940 -28.962  0.00  0.00    +0.082 A 
ATOM      3  ND1 HIS A   1      -3.719 -33.640 -27.776  0.00  0.00    -0.227 NA
ATOM      4  CE1 HIS A   1      -4.733 -33.283 -27.008  0.00  0.00    +0.199 A 
ATOM      5  NE2 HIS A   1      -5.447 -32.377 -27.653  0.00  0.00    -0.221 NA
ATOM      6  CD2 HIS A   1      -4.872 -32.147 -28.879  0.00  0.00    +0.115 A 
ENDBRANCH   1   2
BRANCH   1   7
ATOM      7  CA  HIS A   1      -1.417 -32.436 -29.753  0.00  0.00    +0.139 C 
BRANCH   7   8
ATOM      8  N   HIS A   1      -1.397 -31.065 -30.251  0.00  0.00    -0.239 NA
ATOM      9  H   HIS A   1      -2.088 -30.785 -30.976  0.00  0.00    +0.142 HD
ENDBRANCH   7   8
BRANCH   7  10
ATOM     10  C   HIS A   1      -0.310 -33.251 -30.401  0.00  0.00    +0.224 C 
ATOM     11  O   HIS A   1       0.205 -32.895 -31.460  0.00  0.00    -0.287 OA
ENDBRANCH   7  10
ENDBRANCH   1   7
TORSDOF 4
REMARK  Name = ../refined-set-2016/3t0d/3t0d_pocket.pdb
REMARK  175 active torsions:
REMARK  status: ('A' for Active; 'I' for Inactive)
REMARK    1  A    between atoms: _1  and  _3
REMARK    2  A    between atoms: _3  and  _4
REMARK    3  A    between atoms: _3  and  _6
REMARK    4  A    between atoms: _6  and  _7
REMARK    5  A    between atoms: _12  and  _13
REMARK    6  A    between atoms: _15  and  _17
REMARK    7  A    between atoms: _17  and  _18
REMARK    8  A    between atoms: _17  and  _20
REMARK    9  A    between atoms: _20  and  _21
REMARK   10  A    between atoms: _24  and  _26
REMARK   11  A    between atoms: _26  and  _27
REMARK   12  A    between atoms: _26  and  _29
REMARK   13  A    between atoms: _29  and  _30
REMARK   14  A    between atoms: _35  and  _37
REMARK   15  A    between atoms: _37  and  _38
REMARK   16  A    between atoms: _37  and  _40
REMARK   17  A    between atoms: _43  and  _45
REMARK   18  A    between atoms: _45  and  _46
REMARK   19  A    between atoms: _45  and  _48
REMARK   20  A    between atoms: _48  and  _49
REMARK   21  A    between atoms: _52  and  _54
REMARK   22  A    between atoms: _54  and  _55
REMARK   23  A    between atoms: _54  and  _57
REMARK   24  A    between atoms: _57  and  _58
REMARK   25  A    between atoms: _58  and  _59
REMARK   26  A    between atoms: _64  and  _66
REMARK   27  A    between atoms: _66  and  _67
REMARK   28  A    between atoms: _66  and  _69
REMARK   29  A    between atoms: _69  and  _70
REMARK   30  A    between atoms: _73  and  _75
REMARK   31  A    between atoms: _75  and  _76
REMARK   32  A    between atoms: _75  and  _78
REMARK   33  A    between atoms: _78  and  _79
REMARK   34  A    between atoms: _79  and  _80
REMARK   35  A    between atoms: _82  and  _84
REMARK   36  A    between atoms: _84  and  _85
REMARK   37  A    between atoms: _84  and  _87
REMARK   38  A    between atoms: _87  and  _88
REMARK   39  A    between atoms: _88  and  _89
REMARK   40  A    between atoms: _89  and  _90
REMARK   41  A    between atoms: _99  and  _101
REMARK   42  A    between atoms: _101  and  _102
REMARK   43  A    between atoms: _101  and  _104
REMARK   44  A    between atoms: _104  and  _105
REMARK   45  A    between atoms: _110  and  _112
REMARK   46  A    between atoms: _112  and  _113
REMARK   47  A    between atoms: _112  and  _115
REMARK   48  A    between atoms: _115  and  _116
REMARK   49  A    between atoms: _121  and  _123
REMARK   50  A    between atoms: _123  and  _124
REMARK   51  A    between atoms: _123  and  _126
REMARK   52  A    between atoms: _126  and  _127
REMARK   53  A    between atoms: _127  and  _128
REMARK   54  A    between atoms: _128  and  _129
REMARK   55  A    between atoms: _138  and  _140
REMARK   56  A    between atoms: _140  and  _141
REMARK   57  A    between atoms: _140  and  _143
REMARK   58  A    between atoms: _143  and  _144
REMARK   59  A    between atoms: _146  and  _148
REMARK   60  A    between atoms: _148  and  _149
REMARK   61  A    between atoms: _148  and  _151
REMARK   62  A    between atoms: _151  and  _152
REMARK   63  A    between atoms: _157  and  _159
REMARK   64  A    between atoms: _159  and  _160
REMARK   65  A    between atoms: _159  and  _162
REMARK   66  A    between atoms: _162  and  _163
REMARK   67  A    between atoms: _163  and  _164
REMARK   68  A    between atoms: _167  and  _169
REMARK   69  A    between atoms: _169  and  _170
REMARK   70  A    between atoms: _169  and  _172
REMARK   71  A    between atoms: _172  and  _173
REMARK   72  A    between atoms: _173  and  _174
REMARK   73  A    between atoms: _177  and  _179
REMARK   74  A    between atoms: _179  and  _180
REMARK   75  A    between atoms: _179  and  _182
REMARK   76  A    between atoms: _182  and  _183
REMARK   77  A    between atoms: _184  and  MG_424
REMARK   78  A    between atoms: _188  and  _190
REMARK   79  A    between atoms: _190  and  _191
REMARK   80  A    between atoms: _193  and  _195
REMARK   81  A    between atoms: _195  and  _196
REMARK   82  A    between atoms: _195  and  _198
REMARK   83  A    between atoms: _198  and  _199
REMARK   84  A    between atoms: _204  and  _206
REMARK   85  A    between atoms: _206  and  _207
REMARK   86  A    between atoms: _206  and  _209
REMARK   87  A    between atoms: _209  and  _210
REMARK   88  A    between atoms: _210  and  _211
REMARK   89  A    between atoms: _214  and  _216
REMARK   90  A    between atoms: _216  and  _217
REMARK   91  A    between atoms: _216  and  _219
REMARK   92  A    between atoms: _219  and  _220
REMARK   93  A    between atoms: _220  and  _221
REMARK   94  A    between atoms: _224  and  _226
REMARK   95  A    between atoms: _226  and  _227
REMARK   96  A    between atoms: _226  and  _229
REMARK   97  A    between atoms: _229  and  _230
REMARK   98  A    between atoms: _230  and  _231
REMARK   99  A    between atoms: _233  and  _235
REMARK  100  A    between atoms: _235  and  _236
REMARK  101  A    between atoms: _235  and  _238
REMARK  102  A    between atoms: _238  and  _239
REMARK  103  A    between atoms: _244  and  _245
REMARK  104  A    between atoms: _247  and  _249
REMARK  105  A    between atoms: _249  and  _250
REMARK  106  A    between atoms: _249  and  _252
REMARK  107  A    between atoms: _252  and  _253
REMARK  108  A    between atoms: _253  and  _254
REMARK  109  A    between atoms: _254  and  _255
REMARK  110  A    between atoms: _255  and  _256
REMARK  111  A    between atoms: _260  and  _262
REMARK  112  A    between atoms: _262  and  _263
REMARK  113  A    between atoms: _262  and  _265
REMARK  114  A    between atoms: _267  and  _269
REMARK  115  A    between atoms: _269  and  _270
REMARK  116  A    between atoms: _269  and  _272
REMARK  117  A    between atoms: _272  and  _273
REMARK  118  A    between atoms: _273  and  _274
REMARK  119  A    between atoms: _277  and  _279
REMARK  120  A    between atoms: _279  and  _280
REMARK  121  A    between atoms: _279  and  _282
REMARK  122  A    between atoms: _282  and  _283
REMARK  123  A    between atoms: _288  and  _290
REMARK  124  A    between atoms: _290  and  _291
REMARK  125  A    between atoms: _294  and  _296
REMARK  126  A    between atoms: _296  and  _297
REMARK  127  A    between atoms: _296  and  _299
REMARK  128  A    between atoms: _299  and  _300
REMARK  129  A    between atoms: _300  and  _301
REMARK  130  A    between atoms: _303  and  _305
REMARK  131  A    between atoms: _305  and  _306
REMARK  132  A    between atoms: _305  and  _308
REMARK  133  A    between atoms: _308  and  _309
REMARK  134  A    between atoms: _319  and  _321
REMARK  135  A    between atoms: _321  and  _322
REMARK  136  A    between atoms: _321  and  _324
REMARK  137  A    between atoms: _324  and  _325
REMARK  138  A    between atoms: _328  and  _330
REMARK  139  A    between atoms: _330  and  _331
REMARK  140  A    between atoms: _330  and  _333
REMARK  141  A    between atoms: _333  and  _334
REMARK  142  A    between atoms: _334  and  _335
REMARK  143  A    between atoms: _340  and  _342
REMARK  144  A    between atoms: _342  and  _343
REMARK  145  A    between atoms: _342  and  _345
REMARK  146  A    between atoms: _345  and  _346
REMARK  147  A    between atoms: _346  and  _347
REMARK  148  A    between atoms: _352  and  _354
REMARK  149  A    between atoms: _354  and  _355
REMARK  150  A    between atoms: _354  and  _357
REMARK  151  A    between atoms: _357  and  _358
REMARK  152  A    between atoms: _364  and  _366
REMARK  153  A    between atoms: _366  and  _367
REMARK  154  A    between atoms: _366  and  _369
REMARK  155  A    between atoms: _371  and  _373
REMARK  156  A    between atoms: _373  and  _374
REMARK  157  A    between atoms: _373  and  _376
REMARK  158  A    between atoms: _376  and  _377
REMARK  159  A    between atoms: _377  and  _378
REMARK  160  A    between atoms: _380  and  _382
REMARK  161  A    between atoms: _382  and  _383
REMARK  162  A    between atoms: _382  and  _385
REMARK  163  A    between atoms: _385  and  _386
REMARK  164  A    between atoms: _391  and  _393
REMARK  165  A    between atoms: _393  and  _394
REMARK  166  A    between atoms: _393  and  _396
REMARK  167  A    between atoms: _396  and  _397
REMARK  168  A    between atoms: _400  and  _402
REMARK  169  A    between atoms: _402  and  _403
REMARK  170  A    between atoms: _402  and  _405
REMARK  171  A    between atoms: _405  and  _406
REMARK  172  A    between atoms: _408  and  _410
REMARK  173  A    between atoms: _410  and  _411
REMARK  174  A    between atoms: _410  and  _413
REMARK  175  A    between atoms: _413  and  _414
REMARK                            x       y       z     vdW  Elec       q    Type
REMARK                         _______ _______ _______ _____ _____    ______ ____
ROOT
ATOM      1  NE  ARG A   1      -3.018 -24.748 -22.772  0.00  0.00    -0.265 N 
ATOM      2  HE  ARG A   1      -2.492 -24.915 -21.890  0.00  0.00    +0.259 HD
ATOM      3  CZ  ARG A   1      -4.307 -25.094 -22.798  0.00  0.00    +0.342 C 
ATOM      4  NH2 ARG A   1      -4.872 -25.613 -21.718  0.00  0.00    -0.292 N 
ATOM      5 HH21 ARG A   1      -4.311 -25.750 -20.853  0.00  0.00    +0.255 HD
ATOM      6 HH22 ARG A   1      -5.876 -25.883 -21.735  0.00  0.00    +0.255 HD
ATOM      7  NH1 ARG A   1      -5.040 -24.920 -23.893  0.00  0.00    -0.292 N 
ATOM      8 HH11 ARG A   1      -6.043 -25.195 -23.896  0.00  0.00    +0.255 HD
ATOM      9 HH12 ARG A   1      -4.611 -24.509 -24.746  0.00  0.00    +0.255 HD
ENDROOT
BRANCH   1  10
ATOM     10  CD  ARG A   1      -2.288 -24.150 -23.894  0.00  0.00    +0.174 C 
BRANCH  10  11
ATOM     11  CG  ARG A   1      -1.131 -25.010 -24.395  0.00  0.00    +0.045 C 
BRANCH  11  12
ATOM     12  CB  ARG A   1      -0.412 -24.337 -25.577  0.00  0.00    +0.029 C 
BRANCH  12  13
ATOM     13  CA  ARG A   1       0.976 -24.912 -25.902  0.00  0.00    +0.133 C 
BRANCH  13  14
ATOM     14  N   ARG A   1       1.499 -24.364 -27.147  0.00  0.00    -0.239 NA
ATOM     15  H   ARG A   1       0.867 -24.294 -27.970  0.00  0.00    +0.142 HD
ENDBRANCH  13  14
BRANCH  13  16
ATOM     16  C   ARG A   1       0.918 -26.435 -26.016  0.00  0.00    +0.224 C 
ATOM     17  O   ARG A   1       0.343 -26.970 -26.967  0.00  0.00    -0.287 OA
ENDBRANCH  13  16
ENDBRANCH  12  13
ENDBRANCH  11  12
ENDBRANCH  10  11
ENDBRANCH   1  10
TORSDOF 6
REMARK  Name = ../refined-set-2016/3t0d/3t0d_pocket.pdb
REMARK  175 active torsions:
REMARK  status: ('A' for Active; 'I' for Inactive)
REMARK    1  A    between atoms: _1  and  _3
REMARK    2  A    between atoms: _3  and  _4
REMARK    3  A    between atoms: _3  and  _6
REMARK    4  A    between atoms: _6  and  _7
REMARK    5  A    between atoms: _12  and  _13
REMARK    6  A    between atoms: _15  and  _17
REMARK    7  A    between atoms: _17  and  _18
REMARK    8  A    between atoms: _17  and  _20
REMARK    9  A    between atoms: _20  and  _21
REMARK   10  A    between atoms: _24  and  _26
REMARK   11  A    between atoms: _26  and  _27
REMARK   12  A    between atoms: _26  and  _29
REMARK   13  A    between atoms: _29  and  _30
REMARK   14  A    between atoms: _35  and  _37
REMARK   15  A    between atoms: _37  and  _38
REMARK   16  A    between atoms: _37  and  _40
REMARK   17  A    between atoms: _43  and  _45
REMARK   18  A    between atoms: _45  and  _46
REMARK   19  A    between atoms: _45  and  _48
REMARK   20  A    between atoms: _48  and  _49
REMARK   21  A    between atoms: _52  and  _54
REMARK   22  A    between atoms: _54  and  _55
REMARK   23  A    between atoms: _54  and  _57
REMARK   24  A    between atoms: _57  and  _58
REMARK   25  A    between atoms: _58  and  _59
REMARK   26  A    between atoms: _64  and  _66
REMARK   27  A    between atoms: _66  and  _67
REMARK   28  A    between atoms: _66  and  _69
REMARK   29  A    between atoms: _69  and  _70
REMARK   30  A    between atoms: _73  and  _75
REMARK   31  A    between atoms: _75  and  _76
REMARK   32  A    between atoms: _75  and  _78
REMARK   33  A    between atoms: _78  and  _79
REMARK   34  A    between atoms: _79  and  _80
REMARK   35  A    between atoms: _82  and  _84
REMARK   36  A    between atoms: _84  and  _85
REMARK   37  A    between atoms: _84  and  _87
REMARK   38  A    between atoms: _87  and  _88
REMARK   39  A    between atoms: _88  and  _89
REMARK   40  A    between atoms: _89  and  _90
REMARK   41  A    between atoms: _99  and  _101
REMARK   42  A    between atoms: _101  and  _102
REMARK   43  A    between atoms: _101  and  _104
REMARK   44  A    between atoms: _104  and  _105
REMARK   45  A    between atoms: _110  and  _112
REMARK   46  A    between atoms: _112  and  _113
REMARK   47  A    between atoms: _112  and  _115
REMARK   48  A    between atoms: _115  and  _116
REMARK   49  A    between atoms: _121  and  _123
REMARK   50  A    between atoms: _123  and  _124
REMARK   51  A    between atoms: _123  and  _126
REMARK   52  A    between atoms: _126  and  _127
REMARK   53  A    between atoms: _127  and  _128
REMARK   54  A    between atoms: _128  and  _129
REMARK   55  A    between atoms: _138  and  _140
REMARK   56  A    between atoms: _140  and  _141
REMARK   57  A    between atoms: _140  and  _143
REMARK   58  A    between atoms: _143  and  _144
REMARK   59  A    between atoms: _146  and  _148
REMARK   60  A    between atoms: _148  and  _149
REMARK   61  A    between atoms: _148  and  _151
REMARK   62  A    between atoms: _151  and  _152
REMARK   63  A    between atoms: _157  and  _159
REMARK   64  A    between atoms: _159  and  _160
REMARK   65  A    between atoms: _159  and  _162
REMARK   66  A    between atoms: _162  and  _163
REMARK   67  A    between atoms: _163  and  _164
REMARK   68  A    between atoms: _167  and  _169
REMARK   69  A    between atoms: _169  and  _170
REMARK   70  A    between atoms: _169  and  _172
REMARK   71  A    between atoms: _172  and  _173
REMARK   72  A    between atoms: _173  and  _174
REMARK   73  A    between atoms: _177  and  _179
REMARK   74  A    between atoms: _179  and  _180
REMARK   75  A    between atoms: _179  and  _182
REMARK   76  A    between atoms: _182  and  _183
REMARK   77  A    between atoms: _184  and  MG_424
REMARK   78  A    between atoms: _188  and  _190
REMARK   79  A    between atoms: _190  and  _191
REMARK   80  A    between atoms: _193  and  _195
REMARK   81  A    between atoms: _195  and  _196
REMARK   82  A    between atoms: _195  and  _198
REMARK   83  A    between atoms: _198  and  _199
REMARK   84  A    between atoms: _204  and  _206
REMARK   85  A    between atoms: _206  and  _207
REMARK   86  A    between atoms: _206  and  _209
REMARK   87  A    between atoms: _209  and  _210
REMARK   88  A    between atoms: _210  and  _211
REMARK   89  A    between atoms: _214  and  _216
REMARK   90  A    between atoms: _216  and  _217
REMARK   91  A    between atoms: _216  and  _219
REMARK   92  A    between atoms: _219  and  _220
REMARK   93  A    between atoms: _220  and  _221
REMARK   94  A    between atoms: _224  and  _226
REMARK   95  A    between atoms: _226  and  _227
REMARK   96  A    between atoms: _226  and  _229
REMARK   97  A    between atoms: _229  and  _230
REMARK   98  A    between atoms: _230  and  _231
REMARK   99  A    between atoms: _233  and  _235
REMARK  100  A    between atoms: _235  and  _236
REMARK  101  A    between atoms: _235  and  _238
REMARK  102  A    between atoms: _238  and  _239
REMARK  103  A    between atoms: _244  and  _245
REMARK  104  A    between atoms: _247  and  _249
REMARK  105  A    between atoms: _249  and  _250
REMARK  106  A    between atoms: _249  and  _252
REMARK  107  A    between atoms: _252  and  _253
REMARK  108  A    between atoms: _253  and  _254
REMARK  109  A    between atoms: _254  and  _255
REMARK  110  A    between atoms: _255  and  _256
REMARK  111  A    between atoms: _260  and  _262
REMARK  112  A    between atoms: _262  and  _263
REMARK  113  A    between atoms: _262  and  _265
REMARK  114  A    between atoms: _267  and  _269
REMARK  115  A    between atoms: _269  and  _270
REMARK  116  A    between atoms: _269  and  _272
REMARK  117  A    between atoms: _272  and  _273
REMARK  118  A    between atoms: _273  and  _274
REMARK  119  A    between atoms: _277  and  _279
REMARK  120  A    between atoms: _279  and  _280
REMARK  121  A    between atoms: _279  and  _282
REMARK  122  A    between atoms: _282  and  _283
REMARK  123  A    between atoms: _288  and  _290
REMARK  124  A    between atoms: _290  and  _291
REMARK  125  A    between atoms: _294  and  _296
REMARK  126  A    between atoms: _296  and  _297
REMARK  127  A    between atoms: _296  and  _299
REMARK  128  A    between atoms: _299  and  _300
REMARK  129  A    between atoms: _300  and  _301
REMARK  130  A    between atoms: _303  and  _305
REMARK  131  A    between atoms: _305  and  _306
REMARK  132  A    between atoms: _305  and  _308
REMARK  133  A    between atoms: _308  and  _309
REMARK  134  A    between atoms: _319  and  _321
REMARK  135  A    between atoms: _321  and  _322
REMARK  136  A    between atoms: _321  and  _324
REMARK  137  A    between atoms: _324  and  _325
REMARK  138  A    between atoms: _328  and  _330
REMARK  139  A    between atoms: _330  and  _331
REMARK  140  A    between atoms: _330  and  _333
REMARK  141  A    between atoms: _333  and  _334
REMARK  142  A    between atoms: _334  and  _335
REMARK  143  A    between atoms: _340  and  _342
REMARK  144  A    between atoms: _342  and  _343
REMARK  145  A    between atoms: _342  and  _345
REMARK  146  A    between atoms: _345  and  _346
REMARK  147  A    between atoms: _346  and  _347
REMARK  148  A    between atoms: _352  and  _354
REMARK  149  A    between atoms: _354  and  _355
REMARK  150  A    between atoms: _354  and  _357
REMARK  151  A    between atoms: _357  and  _358
REMARK  152  A    between atoms: _364  and  _366
REMARK  153  A    between atoms: _366  and  _367
REMARK  154  A    between atoms: _366  and  _369
REMARK  155  A    between atoms: _371  and  _373
REMARK  156  A    between atoms: _373  and  _374
REMARK  157  A    between atoms: _373  and  _376
REMARK  158  A    between atoms: _376  and  _377
REMARK  159  A    between atoms: _377  and  _378
REMARK  160  A    between atoms: _380  and  _382
REMARK  161  A    between atoms: _382  and  _383
REMARK  162  A    between atoms: _382  and  _385
REMARK  163  A    between atoms: _385  and  _386
REMARK  164  A    between atoms: _391  and  _393
REMARK  165  A    between atoms: _393  and  _394
REMARK  166  A    between atoms: _393  and  _396
REMARK  167  A    between atoms: _396  and  _397
REMARK  168  A    between atoms: _400  and  _402
REMARK  169  A    between atoms: _402  and  _403
REMARK  170  A    between atoms: _402  and  _405
REMARK  171  A    between atoms: _405  and  _406
REMARK  172  A    between atoms: _408  and  _410
REMARK  173  A    between atoms: _410  and  _411
REMARK  174  A    between atoms: _410  and  _413
REMARK  175  A    between atoms: _413  and  _414
REMARK                            x       y       z     vdW  Elec       q    Type
REMARK                         _______ _______ _______ _____ _____    ______ ____
ROOT
ATOM      1  C   SER A   1      -2.309 -30.912 -25.037  0.00  0.00    +0.241 C 
ATOM      2  N   HIS A   2      -2.682 -31.586 -23.943  0.00  0.00    -0.298 N 
ATOM      3  H   HIS A   2      -2.917 -32.591 -24.070  0.00  0.00    +0.150 HD
ATOM      4  O   SER A   1      -1.999 -31.495 -26.073  0.00  0.00    -0.274 OA
ENDROOT
BRANCH   1   5
ATOM      5  CA  SER A   1      -2.212 -29.381 -24.989  0.00  0.00    +0.174 C 
BRANCH   5   6
ATOM      6  N   SER A   1      -0.863 -28.940 -25.332  0.00  0.00    -0.236 NA
ATOM      7  H   SER A   1      -0.693 -28.508 -26.263  0.00  0.00    +0.142 HD
ENDBRANCH   5   6
BRANCH   5   8
ATOM      8  CB  SER A   1      -3.202 -28.779 -25.983  0.00  0.00    +0.163 C 
BRANCH   8   9
ATOM      9  OG  SER A   1      -2.873 -29.153 -27.311  0.00  0.00    -0.380 OA
ATOM     10  H   SER A   1      -3.527 -28.752 -27.937  0.00  0.00    +0.211 HD
ENDBRANCH   8   9
ENDBRANCH   5   8
ENDBRANCH   1   5
BRANCH   2  11
ATOM     11  CA  HIS A   2      -2.792 -31.048 -22.582  0.00  0.00    +0.143 C 
BRANCH  11  12
ATOM     12  C   HIS A   2      -2.030 -32.015 -21.664  0.00  0.00    +0.227 C 
ATOM     13  O   HIS A   2      -2.627 -32.716 -20.839  0.00  0.00    -0.286 OA
ENDBRANCH  11  12
BRANCH  11  14
ATOM     14  CB  HIS A   2      -4.256 -30.963 -22.129  0.00  0.00    +0.075 C 
BRANCH  14  15
ATOM     15  CG  HIS A   2      -5.120 -30.116 -23.011  0.00  0.00    +0.082 A 
ATOM     16  ND1 HIS A   2      -5.017 -28.743 -23.055  0.00  0.00    -0.227 NA
ATOM     17  CE1 HIS A   2      -5.896 -28.264 -23.918  0.00  0.00    +0.199 A 
ATOM     18  NE2 HIS A   2      -6.571 -29.277 -24.431  0.00  0.00    -0.221 NA
ATOM     19  CD2 HIS A   2      -6.108 -30.447 -23.877  0.00  0.00    +0.115 A 
ENDBRANCH  14  15
ENDBRANCH  11  14
ENDBRANCH   2  11
TORSDOF 8
REMARK  Name = ../refined-set-2016/3t0d/3t0d_pocket.pdb
REMARK  175 active torsions:
REMARK  status: ('A' for Active; 'I' for Inactive)
REMARK    1  A    between atoms: _1  and  _3
REMARK    2  A    between atoms: _3  and  _4
REMARK    3  A    between atoms: _3  and  _6
REMARK    4  A    between atoms: _6  and  _7
REMARK    5  A    between atoms: _12  and  _13
REMARK    6  A    between atoms: _15  and  _17
REMARK    7  A    between atoms: _17  and  _18
REMARK    8  A    between atoms: _17  and  _20
REMARK    9  A    between atoms: _20  and  _21
REMARK   10  A    between atoms: _24  and  _26
REMARK   11  A    between atoms: _26  and  _27
REMARK   12  A    between atoms: _26  and  _29
REMARK   13  A    between atoms: _29  and  _30
REMARK   14  A    between atoms: _35  and  _37
REMARK   15  A    between atoms: _37  and  _38
REMARK   16  A    between atoms: _37  and  _40
REMARK   17  A    between atoms: _43  and  _45
REMARK   18  A    between atoms: _45  and  _46
REMARK   19  A    between atoms: _45  and  _48
REMARK   20  A    between atoms: _48  and  _49
REMARK   21  A    between atoms: _52  and  _54
REMARK   22  A    between atoms: _54  and  _55
REMARK   23  A    between atoms: _54  and  _57
REMARK   24  A    between atoms: _57  and  _58
REMARK   25  A    between atoms: _58  and  _59
REMARK   26  A    between atoms: _64  and  _66
REMARK   27  A    between atoms: _66  and  _67
REMARK   28  A    between atoms: _66  and  _69
REMARK   29  A    between atoms: _69  and  _70
REMARK   30  A    between atoms: _73  and  _75
REMARK   31  A    between atoms: _75  and  _76
REMARK   32  A    between atoms: _75  and  _78
REMARK   33  A    between atoms: _78  and  _79
REMARK   34  A    between atoms: _79  and  _80
REMARK   35  A    between atoms: _82  and  _84
REMARK   36  A    between atoms: _84  and  _85
REMARK   37  A    between atoms: _84  and  _87
REMARK   38  A    between atoms: _87  and  _88
REMARK   39  A    between atoms: _88  and  _89
REMARK   40  A    between atoms: _89  and  _90
REMARK   41  A    between atoms: _99  and  _101
REMARK   42  A    between atoms: _101  and  _102
REMARK   43  A    between atoms: _101  and  _104
REMARK   44  A    between atoms: _104  and  _105
REMARK   45  A    between atoms: _110  and  _112
REMARK   46  A    between atoms: _112  and  _113
REMARK   47  A    between atoms: _112  and  _115
REMARK   48  A    between atoms: _115  and  _116
REMARK   49  A    between atoms: _121  and  _123
REMARK   50  A    between atoms: _123  and  _124
REMARK   51  A    between atoms: _123  and  _126
REMARK   52  A    between atoms: _126  and  _127
REMARK   53  A    between atoms: _127  and  _128
REMARK   54  A    between atoms: _128  and  _129
REMARK   55  A    between atoms: _138  and  _140
REMARK   56  A    between atoms: _140  and  _141
REMARK   57  A    between atoms: _140  and  _143
REMARK   58  A    between atoms: _143  and  _144
REMARK   59  A    between atoms: _146  and  _148
REMARK   60  A    between atoms: _148  and  _149
REMARK   61  A    between atoms: _148  and  _151
REMARK   62  A    between atoms: _151  and  _152
REMARK   63  A    between atoms: _157  and  _159
REMARK   64  A    between atoms: _159  and  _160
REMARK   65  A    between atoms: _159  and  _162
REMARK   66  A    between atoms: _162  and  _163
REMARK   67  A    between atoms: _163  and  _164
REMARK   68  A    between atoms: _167  and  _169
REMARK   69  A    between atoms: _169  and  _170
REMARK   70  A    between atoms: _169  and  _172
REMARK   71  A    between atoms: _172  and  _173
REMARK   72  A    between atoms: _173  and  _174
REMARK   73  A    between atoms: _177  and  _179
REMARK   74  A    between atoms: _179  and  _180
REMARK   75  A    between atoms: _179  and  _182
REMARK   76  A    between atoms: _182  and  _183
REMARK   77  A    between atoms: _184  and  MG_424
REMARK   78  A    between atoms: _188  and  _190
REMARK   79  A    between atoms: _190  and  _191
REMARK   80  A    between atoms: _193  and  _195
REMARK   81  A    between atoms: _195  and  _196
REMARK   82  A    between atoms: _195  and  _198
REMARK   83  A    between atoms: _198  and  _199
REMARK   84  A    between atoms: _204  and  _206
REMARK   85  A    between atoms: _206  and  _207
REMARK   86  A    between atoms: _206  and  _209
REMARK   87  A    between atoms: _209  and  _210
REMARK   88  A    between atoms: _210  and  _211
REMARK   89  A    between atoms: _214  and  _216
REMARK   90  A    between atoms: _216  and  _217
REMARK   91  A    between atoms: _216  and  _219
REMARK   92  A    between atoms: _219  and  _220
REMARK   93  A    between atoms: _220  and  _221
REMARK   94  A    between atoms: _224  and  _226
REMARK   95  A    between atoms: _226  and  _227
REMARK   96  A    between atoms: _226  and  _229
REMARK   97  A    between atoms: _229  and  _230
REMARK   98  A    between atoms: _230  and  _231
REMARK   99  A    between atoms: _233  and  _235
REMARK  100  A    between atoms: _235  and  _236
REMARK  101  A    between atoms: _235  and  _238
REMARK  102  A    between atoms: _238  and  _239
REMARK  103  A    between atoms: _244  and  _245
REMARK  104  A    between atoms: _247  and  _249
REMARK  105  A    between atoms: _249  and  _250
REMARK  106  A    between atoms: _249  and  _252
REMARK  107  A    between atoms: _252  and  _253
REMARK  108  A    between atoms: _253  and  _254
REMARK  109  A    between atoms: _254  and  _255
REMARK  110  A    between atoms: _255  and  _256
REMARK  111  A    between atoms: _260  and  _262
REMARK  112  A    between atoms: _262  and  _263
REMARK  113  A    between atoms: _262  and  _265
REMARK  114  A    between atoms: _267  and  _269
REMARK  115  A    between atoms: _269  and  _270
REMARK  116  A    between atoms: _269  and  _272
REMARK  117  A    between atoms: _272  and  _273
REMARK  118  A    between atoms: _273  and  _274
REMARK  119  A    between atoms: _277  and  _279
REMARK  120  A    between atoms: _279  and  _280
REMARK  121  A    between atoms: _279  and  _282
REMARK  122  A    between atoms: _282  and  _283
REMARK  123  A    between atoms: _288  and  _290
REMARK  124  A    between atoms: _290  and  _291
REMARK  125  A    between atoms: _294  and  _296
REMARK  126  A    between atoms: _296  and  _297
REMARK  127  A    between atoms: _296  and  _299
REMARK  128  A    between atoms: _299  and  _300
REMARK  129  A    between atoms: _300  and  _301
REMARK  130  A    between atoms: _303  and  _305
REMARK  131  A    between atoms: _305  and  _306
REMARK  132  A    between atoms: _305  and  _308
REMARK  133  A    between atoms: _308  and  _309
REMARK  134  A    between atoms: _319  and  _321
REMARK  135  A    between atoms: _321  and  _322
REMARK  136  A    between atoms: _321  and  _324
REMARK  137  A    between atoms: _324  and  _325
REMARK  138  A    between atoms: _328  and  _330
REMARK  139  A    between atoms: _330  and  _331
REMARK  140  A    between atoms: _330  and  _333
REMARK  141  A    between atoms: _333  and  _334
REMARK  142  A    between atoms: _334  and  _335
REMARK  143  A    between atoms: _340  and  _342
REMARK  144  A    between atoms: _342  and  _343
REMARK  145  A    between atoms: _342  and  _345
REMARK  146  A    between atoms: _345  and  _346
REMARK  147  A    between atoms: _346  and  _347
REMARK  148  A    between atoms: _352  and  _354
REMARK  149  A    between atoms: _354  and  _355
REMARK  150  A    between atoms: _354  and  _357
REMARK  151  A    between atoms: _357  and  _358
REMARK  152  A    between atoms: _364  and  _366
REMARK  153  A    between atoms: _366  and  _367
REMARK  154  A    between atoms: _366  and  _369
REMARK  155  A    between atoms: _371  and  _373
REMARK  156  A    between atoms: _373  and  _374
REMARK  157  A    between atoms: _373  and  _376
REMARK  158  A    between atoms: _376  and  _377
REMARK  159  A    between atoms: _377  and  _378
REMARK  160  A    between atoms: _380  and  _382
REMARK  161  A    between atoms: _382  and  _383
REMARK  162  A    between atoms: _382  and  _385
REMARK  163  A    between atoms: _385  and  _386
REMARK  164  A    between atoms: _391  and  _393
REMARK  165  A    between atoms: _393  and  _394
REMARK  166  A    between atoms: _393  and  _396
REMARK  167  A    between atoms: _396  and  _397
REMARK  168  A    between atoms: _400  and  _402
REMARK  169  A    between atoms: _402  and  _403
REMARK  170  A    between atoms: _402  and  _405
REMARK  171  A    between atoms: _405  and  _406
REMARK  172  A    between atoms: _408  and  _410
REMARK  173  A    between atoms: _410  and  _411
REMARK  174  A    between atoms: _410  and  _413
REMARK  175  A    between atoms: _413  and  _414
REMARK                            x       y       z     vdW  Elec       q    Type
REMARK                         _______ _______ _______ _____ _____    ______ ____
ROOT
ATOM      1  CA  GLU A   1       1.103 -28.356 -19.194  0.00  0.00    +0.134 C 
ENDROOT
BRANCH   1   2
ATOM      2  N   GLU A   1       2.382 -28.157 -19.857  0.00  0.00    -0.239 NA
ATOM      3  H   GLU A   1       2.664 -28.802 -20.622  0.00  0.00    +0.142 HD
ENDBRANCH   1   2
BRANCH   1   4
ATOM      4  C   GLU A   1       1.009 -29.735 -18.547  0.00  0.00    +0.224 C 
ATOM      5  O   GLU A   1       1.279 -30.739 -19.198  0.00  0.00    -0.287 OA
ENDBRANCH   1   4
BRANCH   1   6
ATOM      6  CB  GLU A   1      -0.015 -28.178 -20.226  0.00  0.00    +0.037 C 
BRANCH   6   7
ATOM      7  CG  GLU A   1      -1.423 -28.227 -19.674  0.00  0.00    +0.116 C 
BRANCH   7   8
ATOM      8  CD  GLU A   1      -2.377 -27.438 -20.546  0.00  0.00    +0.365 C 
ATOM      9  OE2 GLU A   1      -2.453 -26.200 -20.379  0.00  0.00    -0.246 OA
ATOM     10  OE1 GLU A   1      -3.043 -28.051 -21.406  0.00  0.00    -0.246 OA
ENDBRANCH   7   8
ENDBRANCH   6   7
ENDBRANCH   1   6
TORSDOF 5
REMARK  Name = ../refined-set-2016/3t0d/3t0d_pocket.pdb
REMARK  175 active torsions:
REMARK  status: ('A' for Active; 'I' for Inactive)
REMARK    1  A    between atoms: _1  and  _3
REMARK    2  A    between atoms: _3  and  _4
REMARK    3  A    between atoms: _3  and  _6
REMARK    4  A    between atoms: _6  and  _7
REMARK    5  A    between atoms: _12  and  _13
REMARK    6  A    between atoms: _15  and  _17
REMARK    7  A    between atoms: _17  and  _18
REMARK    8  A    between atoms: _17  and  _20
REMARK    9  A    between atoms: _20  and  _21
REMARK   10  A    between atoms: _24  and  _26
REMARK   11  A    between atoms: _26  and  _27
REMARK   12  A    between atoms: _26  and  _29
REMARK   13  A    between atoms: _29  and  _30
REMARK   14  A    between atoms: _35  and  _37
REMARK   15  A    between atoms: _37  and  _38
REMARK   16  A    between atoms: _37  and  _40
REMARK   17  A    between atoms: _43  and  _45
REMARK   18  A    between atoms: _45  and  _46
REMARK   19  A    between atoms: _45  and  _48
REMARK   20  A    between atoms: _48  and  _49
REMARK   21  A    between atoms: _52  and  _54
REMARK   22  A    between atoms: _54  and  _55
REMARK   23  A    between atoms: _54  and  _57
REMARK   24  A    between atoms: _57  and  _58
REMARK   25  A    between atoms: _58  and  _59
REMARK   26  A    between atoms: _64  and  _66
REMARK   27  A    between atoms: _66  and  _67
REMARK   28  A    between atoms: _66  and  _69
REMARK   29  A    between atoms: _69  and  _70
REMARK   30  A    between atoms: _73  and  _75
REMARK   31  A    between atoms: _75  and  _76
REMARK   32  A    between atoms: _75  and  _78
REMARK   33  A    between atoms: _78  and  _79
REMARK   34  A    between atoms: _79  and  _80
REMARK   35  A    between atoms: _82  and  _84
REMARK   36  A    between atoms: _84  and  _85
REMARK   37  A    between atoms: _84  and  _87
REMARK   38  A    between atoms: _87  and  _88
REMARK   39  A    between atoms: _88  and  _89
REMARK   40  A    between atoms: _89  and  _90
REMARK   41  A    between atoms: _99  and  _101
REMARK   42  A    between atoms: _101  and  _102
REMARK   43  A    between atoms: _101  and  _104
REMARK   44  A    between atoms: _104  and  _105
REMARK   45  A    between atoms: _110  and  _112
REMARK   46  A    between atoms: _112  and  _113
REMARK   47  A    between atoms: _112  and  _115
REMARK   48  A    between atoms: _115  and  _116
REMARK   49  A    between atoms: _121  and  _123
REMARK   50  A    between atoms: _123  and  _124
REMARK   51  A    between atoms: _123  and  _126
REMARK   52  A    between atoms: _126  and  _127
REMARK   53  A    between atoms: _127  and  _128
REMARK   54  A    between atoms: _128  and  _129
REMARK   55  A    between atoms: _138  and  _140
REMARK   56  A    between atoms: _140  and  _141
REMARK   57  A    between atoms: _140  and  _143
REMARK   58  A    between atoms: _143  and  _144
REMARK   59  A    between atoms: _146  and  _148
REMARK   60  A    between atoms: _148  and  _149
REMARK   61  A    between atoms: _148  and  _151
REMARK   62  A    between atoms: _151  and  _152
REMARK   63  A    between atoms: _157  and  _159
REMARK   64  A    between atoms: _159  and  _160
REMARK   65  A    between atoms: _159  and  _162
REMARK   66  A    between atoms: _162  and  _163
REMARK   67  A    between atoms: _163  and  _164
REMARK   68  A    between atoms: _167  and  _169
REMARK   69  A    between atoms: _169  and  _170
REMARK   70  A    between atoms: _169  and  _172
REMARK   71  A    between atoms: _172  and  _173
REMARK   72  A    between atoms: _173  and  _174
REMARK   73  A    between atoms: _177  and  _179
REMARK   74  A    between atoms: _179  and  _180
REMARK   75  A    between atoms: _179  and  _182
REMARK   76  A    between atoms: _182  and  _183
REMARK   77  A    between atoms: _184  and  MG_424
REMARK   78  A    between atoms: _188  and  _190
REMARK   79  A    between atoms: _190  and  _191
REMARK   80  A    between atoms: _193  and  _195
REMARK   81  A    between atoms: _195  and  _196
REMARK   82  A    between atoms: _195  and  _198
REMARK   83  A    between atoms: _198  and  _199
REMARK   84  A    between atoms: _204  and  _206
REMARK   85  A    between atoms: _206  and  _207
REMARK   86  A    between atoms: _206  and  _209
REMARK   87  A    between atoms: _209  and  _210
REMARK   88  A    between atoms: _210  and  _211
REMARK   89  A    between atoms: _214  and  _216
REMARK   90  A    between atoms: _216  and  _217
REMARK   91  A    between atoms: _216  and  _219
REMARK   92  A    between atoms: _219  and  _220
REMARK   93  A    between atoms: _220  and  _221
REMARK   94  A    between atoms: _224  and  _226
REMARK   95  A    between atoms: _226  and  _227
REMARK   96  A    between atoms: _226  and  _229
REMARK   97  A    between atoms: _229  and  _230
REMARK   98  A    between atoms: _230  and  _231
REMARK   99  A    between atoms: _233  and  _235
REMARK  100  A    between atoms: _235  and  _236
REMARK  101  A    between atoms: _235  and  _238
REMARK  102  A    between atoms: _238  and  _239
REMARK  103  A    between atoms: _244  and  _245
REMARK  104  A    between atoms: _247  and  _249
REMARK  105  A    between atoms: _249  and  _250
REMARK  106  A    between atoms: _249  and  _252
REMARK  107  A    between atoms: _252  and  _253
REMARK  108  A    between atoms: _253  and  _254
REMARK  109  A    between atoms: _254  and  _255
REMARK  110  A    between atoms: _255  and  _256
REMARK  111  A    between atoms: _260  and  _262
REMARK  112  A    between atoms: _262  and  _263
REMARK  113  A    between atoms: _262  and  _265
REMARK  114  A    between atoms: _267  and  _269
REMARK  115  A    between atoms: _269  and  _270
REMARK  116  A    between atoms: _269  and  _272
REMARK  117  A    between atoms: _272  and  _273
REMARK  118  A    between atoms: _273  and  _274
REMARK  119  A    between atoms: _277  and  _279
REMARK  120  A    between atoms: _279  and  _280
REMARK  121  A    between atoms: _279  and  _282
REMARK  122  A    between atoms: _282  and  _283
REMARK  123  A    between atoms: _288  and  _290
REMARK  124  A    between atoms: _290  and  _291
REMARK  125  A    between atoms: _294  and  _296
REMARK  126  A    between atoms: _296  and  _297
REMARK  127  A    between atoms: _296  and  _299
REMARK  128  A    between atoms: _299  and  _300
REMARK  129  A    between atoms: _300  and  _301
REMARK  130  A    between atoms: _303  and  _305
REMARK  131  A    between atoms: _305  and  _306
REMARK  132  A    between atoms: _305  and  _308
REMARK  133  A    between atoms: _308  and  _309
REMARK  134  A    between atoms: _319  and  _321
REMARK  135  A    between atoms: _321  and  _322
REMARK  136  A    between atoms: _321  and  _324
REMARK  137  A    between atoms: _324  and  _325
REMARK  138  A    between atoms: _328  and  _330
REMARK  139  A    between atoms: _330  and  _331
REMARK  140  A    between atoms: _330  and  _333
REMARK  141  A    between atoms: _333  and  _334
REMARK  142  A    between atoms: _334  and  _335
REMARK  143  A    between atoms: _340  and  _342
REMARK  144  A    between atoms: _342  and  _343
REMARK  145  A    between atoms: _342  and  _345
REMARK  146  A    between atoms: _345  and  _346
REMARK  147  A    between atoms: _346  and  _347
REMARK  148  A    between atoms: _352  and  _354
REMARK  149  A    between atoms: _354  and  _355
REMARK  150  A    between atoms: _354  and  _357
REMARK  151  A    between atoms: _357  and  _358
REMARK  152  A    between atoms: _364  and  _366
REMARK  153  A    between atoms: _366  and  _367
REMARK  154  A    between atoms: _366  and  _369
REMARK  155  A    between atoms: _371  and  _373
REMARK  156  A    between atoms: _373  and  _374
REMARK  157  A    between atoms: _373  and  _376
REMARK  158  A    between atoms: _376  and  _377
REMARK  159  A    between atoms: _377  and  _378
REMARK  160  A    between atoms: _380  and  _382
REMARK  161  A    between atoms: _382  and  _383
REMARK  162  A    between atoms: _382  and  _385
REMARK  163  A    between atoms: _385  and  _386
REMARK  164  A    between atoms: _391  and  _393
REMARK  165  A    between atoms: _393  and  _394
REMARK  166  A    between atoms: _393  and  _396
REMARK  167  A    between atoms: _396  and  _397
REMARK  168  A    between atoms: _400  and  _402
REMARK  169  A    between atoms: _402  and  _403
REMARK  170  A    between atoms: _402  and  _405
REMARK  171  A    between atoms: _405  and  _406
REMARK  172  A    between atoms: _408  and  _410
REMARK  173  A    between atoms: _410  and  _411
REMARK  174  A    between atoms: _410  and  _413
REMARK  175  A    between atoms: _413  and  _414
REMARK                            x       y       z     vdW  Elec       q    Type
REMARK                         _______ _______ _______ _____ _____    ______ ____
ROOT
ATOM      1  CA  GLU A   1      -8.007 -33.053 -17.391  0.00  0.00    +0.134 C 
ENDROOT
BRANCH   1   2
ATOM      2  N   GLU A   1      -6.717 -33.540 -16.887  0.00  0.00    -0.239 NA
ATOM      3  H   GLU A   1      -6.555 -34.566 -16.831  0.00  0.00    +0.142 HD
ENDBRANCH   1   2
BRANCH   1   4
ATOM      4  C   GLU A   1      -9.140 -33.939 -16.895  0.00  0.00    +0.224 C 
ATOM      5  O   GLU A   1      -9.145 -35.152 -17.140  0.00  0.00    -0.287 OA
ENDBRANCH   1   4
BRANCH   1   6
ATOM      6  CB  GLU A   1      -8.054 -32.942 -18.925  0.00  0.00    +0.037 C 
BRANCH   6   7
ATOM      7  CG  GLU A   1      -9.484 -32.611 -19.429  0.00  0.00    +0.116 C 
BRANCH   7   8
ATOM      8  CD  GLU A   1      -9.559 -31.962 -20.804  0.00  0.00    +0.365 C 
ATOM      9  OE2 GLU A   1     -10.693 -31.641 -21.218  0.00  0.00    -0.246 OA
ATOM     10  OE1 GLU A   1      -8.523 -31.765 -21.479  0.00  0.00    -0.246 OA
ENDBRANCH   7   8
ENDBRANCH   6   7
ENDBRANCH   1   6
TORSDOF 5
REMARK  Name = ../refined-set-2016/3t0d/3t0d_pocket.pdb
REMARK  175 active torsions:
REMARK  status: ('A' for Active; 'I' for Inactive)
REMARK    1  A    between atoms: _1  and  _3
REMARK    2  A    between atoms: _3  and  _4
REMARK    3  A    between atoms: _3  and  _6
REMARK    4  A    between atoms: _6  and  _7
REMARK    5  A    between atoms: _12  and  _13
REMARK    6  A    between atoms: _15  and  _17
REMARK    7  A    between atoms: _17  and  _18
REMARK    8  A    between atoms: _17  and  _20
REMARK    9  A    between atoms: _20  and  _21
REMARK   10  A    between atoms: _24  and  _26
REMARK   11  A    between atoms: _26  and  _27
REMARK   12  A    between atoms: _26  and  _29
REMARK   13  A    between atoms: _29  and  _30
REMARK   14  A    between atoms: _35  and  _37
REMARK   15  A    between atoms: _37  and  _38
REMARK   16  A    between atoms: _37  and  _40
REMARK   17  A    between atoms: _43  and  _45
REMARK   18  A    between atoms: _45  and  _46
REMARK   19  A    between atoms: _45  and  _48
REMARK   20  A    between atoms: _48  and  _49
REMARK   21  A    between atoms: _52  and  _54
REMARK   22  A    between atoms: _54  and  _55
REMARK   23  A    between atoms: _54  and  _57
REMARK   24  A    between atoms: _57  and  _58
REMARK   25  A    between atoms: _58  and  _59
REMARK   26  A    between atoms: _64  and  _66
REMARK   27  A    between atoms: _66  and  _67
REMARK   28  A    between atoms: _66  and  _69
REMARK   29  A    between atoms: _69  and  _70
REMARK   30  A    between atoms: _73  and  _75
REMARK   31  A    between atoms: _75  and  _76
REMARK   32  A    between atoms: _75  and  _78
REMARK   33  A    between atoms: _78  and  _79
REMARK   34  A    between atoms: _79  and  _80
REMARK   35  A    between atoms: _82  and  _84
REMARK   36  A    between atoms: _84  and  _85
REMARK   37  A    between atoms: _84  and  _87
REMARK   38  A    between atoms: _87  and  _88
REMARK   39  A    between atoms: _88  and  _89
REMARK   40  A    between atoms: _89  and  _90
REMARK   41  A    between atoms: _99  and  _101
REMARK   42  A    between atoms: _101  and  _102
REMARK   43  A    between atoms: _101  and  _104
REMARK   44  A    between atoms: _104  and  _105
REMARK   45  A    between atoms: _110  and  _112
REMARK   46  A    between atoms: _112  and  _113
REMARK   47  A    between atoms: _112  and  _115
REMARK   48  A    between atoms: _115  and  _116
REMARK   49  A    between atoms: _121  and  _123
REMARK   50  A    between atoms: _123  and  _124
REMARK   51  A    between atoms: _123  and  _126
REMARK   52  A    between atoms: _126  and  _127
REMARK   53  A    between atoms: _127  and  _128
REMARK   54  A    between atoms: _128  and  _129
REMARK   55  A    between atoms: _138  and  _140
REMARK   56  A    between atoms: _140  and  _141
REMARK   57  A    between atoms: _140  and  _143
REMARK   58  A    between atoms: _143  and  _144
REMARK   59  A    between atoms: _146  and  _148
REMARK   60  A    between atoms: _148  and  _149
REMARK   61  A    between atoms: _148  and  _151
REMARK   62  A    between atoms: _151  and  _152
REMARK   63  A    between atoms: _157  and  _159
REMARK   64  A    between atoms: _159  and  _160
REMARK   65  A    between atoms: _159  and  _162
REMARK   66  A    between atoms: _162  and  _163
REMARK   67  A    between atoms: _163  and  _164
REMARK   68  A    between atoms: _167  and  _169
REMARK   69  A    between atoms: _169  and  _170
REMARK   70  A    between atoms: _169  and  _172
REMARK   71  A    between atoms: _172  and  _173
REMARK   72  A    between atoms: _173  and  _174
REMARK   73  A    between atoms: _177  and  _179
REMARK   74  A    between atoms: _179  and  _180
REMARK   75  A    between atoms: _179  and  _182
REMARK   76  A    between atoms: _182  and  _183
REMARK   77  A    between atoms: _184  and  MG_424
REMARK   78  A    between atoms: _188  and  _190
REMARK   79  A    between atoms: _190  and  _191
REMARK   80  A    between atoms: _193  and  _195
REMARK   81  A    between atoms: _195  and  _196
REMARK   82  A    between atoms: _195  and  _198
REMARK   83  A    between atoms: _198  and  _199
REMARK   84  A    between atoms: _204  and  _206
REMARK   85  A    between atoms: _206  and  _207
REMARK   86  A    between atoms: _206  and  _209
REMARK   87  A    between atoms: _209  and  _210
REMARK   88  A    between atoms: _210  and  _211
REMARK   89  A    between atoms: _214  and  _216
REMARK   90  A    between atoms: _216  and  _217
REMARK   91  A    between atoms: _216  and  _219
REMARK   92  A    between atoms: _219  and  _220
REMARK   93  A    between atoms: _220  and  _221
REMARK   94  A    between atoms: _224  and  _226
REMARK   95  A    between atoms: _226  and  _227
REMARK   96  A    between atoms: _226  and  _229
REMARK   97  A    between atoms: _229  and  _230
REMARK   98  A    between atoms: _230  and  _231
REMARK   99  A    between atoms: _233  and  _235
REMARK  100  A    between atoms: _235  and  _236
REMARK  101  A    between atoms: _235  and  _238
REMARK  102  A    between atoms: _238  and  _239
REMARK  103  A    between atoms: _244  and  _245
REMARK  104  A    between atoms: _247  and  _249
REMARK  105  A    between atoms: _249  and  _250
REMARK  106  A    between atoms: _249  and  _252
REMARK  107  A    between atoms: _252  and  _253
REMARK  108  A    between atoms: _253  and  _254
REMARK  109  A    between atoms: _254  and  _255
REMARK  110  A    between atoms: _255  and  _256
REMARK  111  A    between atoms: _260  and  _262
REMARK  112  A    between atoms: _262  and  _263
REMARK  113  A    between atoms: _262  and  _265
REMARK  114  A    between atoms: _267  and  _269
REMARK  115  A    between atoms: _269  and  _270
REMARK  116  A    between atoms: _269  and  _272
REMARK  117  A    between atoms: _272  and  _273
REMARK  118  A    between atoms: _273  and  _274
REMARK  119  A    between atoms: _277  and  _279
REMARK  120  A    between atoms: _279  and  _280
REMARK  121  A    between atoms: _279  and  _282
REMARK  122  A    between atoms: _282  and  _283
REMARK  123  A    between atoms: _288  and  _290
REMARK  124  A    between atoms: _290  and  _291
REMARK  125  A    between atoms: _294  and  _296
REMARK  126  A    between atoms: _296  and  _297
REMARK  127  A    between atoms: _296  and  _299
REMARK  128  A    between atoms: _299  and  _300
REMARK  129  A    between atoms: _300  and  _301
REMARK  130  A    between atoms: _303  and  _305
REMARK  131  A    between atoms: _305  and  _306
REMARK  132  A    between atoms: _305  and  _308
REMARK  133  A    between atoms: _308  and  _309
REMARK  134  A    between atoms: _319  and  _321
REMARK  135  A    between atoms: _321  and  _322
REMARK  136  A    between atoms: _321  and  _324
REMARK  137  A    between atoms: _324  and  _325
REMARK  138  A    between atoms: _328  and  _330
REMARK  139  A    between atoms: _330  and  _331
REMARK  140  A    between atoms: _330  and  _333
REMARK  141  A    between atoms: _333  and  _334
REMARK  142  A    between atoms: _334  and  _335
REMARK  143  A    between atoms: _340  and  _342
REMARK  144  A    between atoms: _342  and  _343
REMARK  145  A    between atoms: _342  and  _345
REMARK  146  A    between atoms: _345  and  _346
REMARK  147  A    between atoms: _346  and  _347
REMARK  148  A    between atoms: _352  and  _354
REMARK  149  A    between atoms: _354  and  _355
REMARK  150  A    between atoms: _354  and  _357
REMARK  151  A    between atoms: _357  and  _358
REMARK  152  A    between atoms: _364  and  _366
REMARK  153  A    between atoms: _366  and  _367
REMARK  154  A    between atoms: _366  and  _369
REMARK  155  A    between atoms: _371  and  _373
REMARK  156  A    between atoms: _373  and  _374
REMARK  157  A    between atoms: _373  and  _376
REMARK  158  A    between atoms: _376  and  _377
REMARK  159  A    between atoms: _377  and  _378
REMARK  160  A    between atoms: _380  and  _382
REMARK  161  A    between atoms: _382  and  _383
REMARK  162  A    between atoms: _382  and  _385
REMARK  163  A    between atoms: _385  and  _386
REMARK  164  A    between atoms: _391  and  _393
REMARK  165  A    between atoms: _393  and  _394
REMARK  166  A    between atoms: _393  and  _396
REMARK  167  A    between atoms: _396  and  _397
REMARK  168  A    between atoms: _400  and  _402
REMARK  169  A    between atoms: _402  and  _403
REMARK  170  A    between atoms: _402  and  _405
REMARK  171  A    between atoms: _405  and  _406
REMARK  172  A    between atoms: _408  and  _410
REMARK  173  A    between atoms: _410  and  _411
REMARK  174  A    between atoms: _410  and  _413
REMARK  175  A    between atoms: _413  and  _414
REMARK                            x       y       z     vdW  Elec       q    Type
REMARK                         _______ _______ _______ _____ _____    ______ ____
ROOT
ATOM      1  C   UNL     1     -14.107 -31.204 -20.309  0.00  0.00    +0.000 A 
ATOM      2  C   UNL     1     -15.206 -30.488 -19.970  0.00  0.00    +0.000 A 
ATOM      3  N   UNL     1     -15.408 -29.559 -20.961  0.00  0.00    +0.000 NA
ATOM      4  C   UNL     1     -14.462 -29.692 -21.872  0.00  0.00    +0.000 A 
ATOM      5  N   UNL     1     -13.661 -30.676 -21.504  0.00  0.00    +0.000 N 
ENDROOT
BRANCH   5   6
ATOM      6 MG   UNL     1     -12.044 -31.094 -22.682  0.00  0.00    +0.000 Mg
ATOM      7  O   UNL     1     -12.903 -30.680 -24.449  0.00  0.00    +0.000 OA
ENDBRANCH   5   6
BRANCH   1   8
ATOM      8  C   UNL     1     -13.409 -32.339 -19.623  0.00  0.00    +0.000 C 
BRANCH   8   9
ATOM      9  CA  UNL     1     -13.669 -32.423 -18.110  0.00  0.00    +0.000 C 
BRANCH   9  10
ATOM     10  N   UNL     1     -12.560 -33.132 -17.451  0.00  0.00    +0.000 NA
ATOM     11  H   UNL     1     -11.734 -33.396 -18.025  0.00  0.00    +0.000 HD
ENDBRANCH   9  10
BRANCH   9  12
ATOM     12  C   UNL     1     -15.033 -33.063 -17.853  0.00  0.00    +0.000 C 
ATOM     13  O   UNL     1     -16.009 -32.362 -17.588  0.00  0.00    +0.000 OA
ENDBRANCH   9  12
ENDBRANCH   8   9
ENDBRANCH   1   8
TORSDOF 5
REMARK  Name = ../refined-set-2016/3t0d/3t0d_pocket.pdb
REMARK  175 active torsions:
REMARK  status: ('A' for Active; 'I' for Inactive)
REMARK    1  A    between atoms: _1  and  _3
REMARK    2  A    between atoms: _3  and  _4
REMARK    3  A    between atoms: _3  and  _6
REMARK    4  A    between atoms: _6  and  _7
REMARK    5  A    between atoms: _12  and  _13
REMARK    6  A    between atoms: _15  and  _17
REMARK    7  A    between atoms: _17  and  _18
REMARK    8  A    between atoms: _17  and  _20
REMARK    9  A    between atoms: _20  and  _21
REMARK   10  A    between atoms: _24  and  _26
REMARK   11  A    between atoms: _26  and  _27
REMARK   12  A    between atoms: _26  and  _29
REMARK   13  A    between atoms: _29  and  _30
REMARK   14  A    between atoms: _35  and  _37
REMARK   15  A    between atoms: _37  and  _38
REMARK   16  A    between atoms: _37  and  _40
REMARK   17  A    between atoms: _43  and  _45
REMARK   18  A    between atoms: _45  and  _46
REMARK   19  A    between atoms: _45  and  _48
REMARK   20  A    between atoms: _48  and  _49
REMARK   21  A    between atoms: _52  and  _54
REMARK   22  A    between atoms: _54  and  _55
REMARK   23  A    between atoms: _54  and  _57
REMARK   24  A    between atoms: _57  and  _58
REMARK   25  A    between atoms: _58  and  _59
REMARK   26  A    between atoms: _64  and  _66
REMARK   27  A    between atoms: _66  and  _67
REMARK   28  A    between atoms: _66  and  _69
REMARK   29  A    between atoms: _69  and  _70
REMARK   30  A    between atoms: _73  and  _75
REMARK   31  A    between atoms: _75  and  _76
REMARK   32  A    between atoms: _75  and  _78
REMARK   33  A    between atoms: _78  and  _79
REMARK   34  A    between atoms: _79  and  _80
REMARK   35  A    between atoms: _82  and  _84
REMARK   36  A    between atoms: _84  and  _85
REMARK   37  A    between atoms: _84  and  _87
REMARK   38  A    between atoms: _87  and  _88
REMARK   39  A    between atoms: _88  and  _89
REMARK   40  A    between atoms: _89  and  _90
REMARK   41  A    between atoms: _99  and  _101
REMARK   42  A    between atoms: _101  and  _102
REMARK   43  A    between atoms: _101  and  _104
REMARK   44  A    between atoms: _104  and  _105
REMARK   45  A    between atoms: _110  and  _112
REMARK   46  A    between atoms: _112  and  _113
REMARK   47  A    between atoms: _112  and  _115
REMARK   48  A    between atoms: _115  and  _116
REMARK   49  A    between atoms: _121  and  _123
REMARK   50  A    between atoms: _123  and  _124
REMARK   51  A    between atoms: _123  and  _126
REMARK   52  A    between atoms: _126  and  _127
REMARK   53  A    between atoms: _127  and  _128
REMARK   54  A    between atoms: _128  and  _129
REMARK   55  A    between atoms: _138  and  _140
REMARK   56  A    between atoms: _140  and  _141
REMARK   57  A    between atoms: _140  and  _143
REMARK   58  A    between atoms: _143  and  _144
REMARK   59  A    between atoms: _146  and  _148
REMARK   60  A    between atoms: _148  and  _149
REMARK   61  A    between atoms: _148  and  _151
REMARK   62  A    between atoms: _151  and  _152
REMARK   63  A    between atoms: _157  and  _159
REMARK   64  A    between atoms: _159  and  _160
REMARK   65  A    between atoms: _159  and  _162
REMARK   66  A    between atoms: _162  and  _163
REMARK   67  A    between atoms: _163  and  _164
REMARK   68  A    between atoms: _167  and  _169
REMARK   69  A    between atoms: _169  and  _170
REMARK   70  A    between atoms: _169  and  _172
REMARK   71  A    between atoms: _172  and  _173
REMARK   72  A    between atoms: _173  and  _174
REMARK   73  A    between atoms: _177  and  _179
REMARK   74  A    between atoms: _179  and  _180
REMARK   75  A    between atoms: _179  and  _182
REMARK   76  A    between atoms: _182  and  _183
REMARK   77  A    between atoms: _184  and  MG_424
REMARK   78  A    between atoms: _188  and  _190
REMARK   79  A    between atoms: _190  and  _191
REMARK   80  A    between atoms: _193  and  _195
REMARK   81  A    between atoms: _195  and  _196
REMARK   82  A    between atoms: _195  and  _198
REMARK   83  A    between atoms: _198  and  _199
REMARK   84  A    between atoms: _204  and  _206
REMARK   85  A    between atoms: _206  and  _207
REMARK   86  A    between atoms: _206  and  _209
REMARK   87  A    between atoms: _209  and  _210
REMARK   88  A    between atoms: _210  and  _211
REMARK   89  A    between atoms: _214  and  _216
REMARK   90  A    between atoms: _216  and  _217
REMARK   91  A    between atoms: _216  and  _219
REMARK   92  A    between atoms: _219  and  _220
REMARK   93  A    between atoms: _220  and  _221
REMARK   94  A    between atoms: _224  and  _226
REMARK   95  A    between atoms: _226  and  _227
REMARK   96  A    between atoms: _226  and  _229
REMARK   97  A    between atoms: _229  and  _230
REMARK   98  A    between atoms: _230  and  _231
REMARK   99  A    between atoms: _233  and  _235
REMARK  100  A    between atoms: _235  and  _236
REMARK  101  A    between atoms: _235  and  _238
REMARK  102  A    between atoms: _238  and  _239
REMARK  103  A    between atoms: _244  and  _245
REMARK  104  A    between atoms: _247  and  _249
REMARK  105  A    between atoms: _249  and  _250
REMARK  106  A    between atoms: _249  and  _252
REMARK  107  A    between atoms: _252  and  _253
REMARK  108  A    between atoms: _253  and  _254
REMARK  109  A    between atoms: _254  and  _255
REMARK  110  A    between atoms: _255  and  _256
REMARK  111  A    between atoms: _260  and  _262
REMARK  112  A    between atoms: _262  and  _263
REMARK  113  A    between atoms: _262  and  _265
REMARK  114  A    between atoms: _267  and  _269
REMARK  115  A    between atoms: _269  and  _270
REMARK  116  A    between atoms: _269  and  _272
REMARK  117  A    between atoms: _272  and  _273
REMARK  118  A    between atoms: _273  and  _274
REMARK  119  A    between atoms: _277  and  _279
REMARK  120  A    between atoms: _279  and  _280
REMARK  121  A    between atoms: _279  and  _282
REMARK  122  A    between atoms: _282  and  _283
REMARK  123  A    between atoms: _288  and  _290
REMARK  124  A    between atoms: _290  and  _291
REMARK  125  A    between atoms: _294  and  _296
REMARK  126  A    between atoms: _296  and  _297
REMARK  127  A    between atoms: _296  and  _299
REMARK  128  A    between atoms: _299  and  _300
REMARK  129  A    between atoms: _300  and  _301
REMARK  130  A    between atoms: _303  and  _305
REMARK  131  A    between atoms: _305  and  _306
REMARK  132  A    between atoms: _305  and  _308
REMARK  133  A    between atoms: _308  and  _309
REMARK  134  A    between atoms: _319  and  _321
REMARK  135  A    between atoms: _321  and  _322
REMARK  136  A    between atoms: _321  and  _324
REMARK  137  A    between atoms: _324  and  _325
REMARK  138  A    between atoms: _328  and  _330
REMARK  139  A    between atoms: _330  and  _331
REMARK  140  A    between atoms: _330  and  _333
REMARK  141  A    between atoms: _333  and  _334
REMARK  142  A    between atoms: _334  and  _335
REMARK  143  A    between atoms: _340  and  _342
REMARK  144  A    between atoms: _342  and  _343
REMARK  145  A    between atoms: _342  and  _345
REMARK  146  A    between atoms: _345  and  _346
REMARK  147  A    between atoms: _346  and  _347
REMARK  148  A    between atoms: _352  and  _354
REMARK  149  A    between atoms: _354  and  _355
REMARK  150  A    between atoms: _354  and  _357
REMARK  151  A    between atoms: _357  and  _358
REMARK  152  A    between atoms: _364  and  _366
REMARK  153  A    between atoms: _366  and  _367
REMARK  154  A    between atoms: _366  and  _369
REMARK  155  A    between atoms: _371  and  _373
REMARK  156  A    between atoms: _373  and  _374
REMARK  157  A    between atoms: _373  and  _376
REMARK  158  A    between atoms: _376  and  _377
REMARK  159  A    between atoms: _377  and  _378
REMARK  160  A    between atoms: _380  and  _382
REMARK  161  A    between atoms: _382  and  _383
REMARK  162  A    between atoms: _382  and  _385
REMARK  163  A    between atoms: _385  and  _386
REMARK  164  A    between atoms: _391  and  _393
REMARK  165  A    between atoms: _393  and  _394
REMARK  166  A    between atoms: _393  and  _396
REMARK  167  A    between atoms: _396  and  _397
REMARK  168  A    between atoms: _400  and  _402
REMARK  169  A    between atoms: _402  and  _403
REMARK  170  A    between atoms: _402  and  _405
REMARK  171  A    between atoms: _405  and  _406
REMARK  172  A    between atoms: _408  and  _410
REMARK  173  A    between atoms: _410  and  _411
REMARK  174  A    between atoms: _410  and  _413
REMARK  175  A    between atoms: _413  and  _414
REMARK                            x       y       z     vdW  Elec       q    Type
REMARK                         _______ _______ _______ _____ _____    ______ ____
ROOT
ATOM      1  CA  ASN A   2      -6.915 -28.309 -18.624  0.00  0.00    +0.158 C 
ENDROOT
BRANCH   1   3
ATOM      2  C   GLY A   1      -4.744 -28.091 -17.549  0.00  0.00    +0.240 C 
ATOM      3  N   ASN A   2      -5.846 -28.803 -17.772  0.00  0.00    -0.297 N 
ATOM      4  H   ASN A   2      -5.945 -29.737 -17.325  0.00  0.00    +0.150 HD
ATOM      5  O   GLY A   1      -4.584 -26.941 -17.966  0.00  0.00    -0.274 OA
BRANCH   2   6
ATOM      6  CA  GLY A   1      -3.672 -28.776 -16.732  0.00  0.00    +0.169 C 
BRANCH   6   7
ATOM      7  N   GLY A   1      -2.793 -27.823 -16.066  0.00  0.00    -0.236 NA
ATOM      8  H   GLY A   1      -2.307 -27.098 -16.632  0.00  0.00    +0.142 HD
ENDBRANCH   6   7
ENDBRANCH   2   6
ENDBRANCH   1   3
BRANCH   1   9
ATOM      9  C   ASN A   2      -8.279 -28.810 -18.182  0.00  0.00    +0.241 C 
ATOM     10  O   ASN A   2      -8.439 -29.987 -17.864  0.00  0.00    -0.273 OA
ATOM     11  N   GLU A   3      -9.260 -27.911 -18.173  0.00  0.00    -0.298 N 
ATOM     12  H   GLU A   3      -9.020 -26.907 -18.300  0.00  0.00    +0.150 HD
BRANCH  11  13
ATOM     13  CA  GLU A   3     -10.660 -28.280 -17.992  0.00  0.00    +0.137 C 
BRANCH  13  14
ATOM     14  C   GLU A   3     -10.862 -29.286 -16.858  0.00  0.00    +0.227 C 
ATOM     15  O   GLU A   3     -11.290 -30.431 -17.064  0.00  0.00    -0.286 OA
ENDBRANCH  13  14
BRANCH  13  16
ATOM     16  CB  GLU A   3     -11.265 -28.753 -19.330  0.00  0.00    +0.039 C 
BRANCH  16  17
ATOM     17  CG  GLU A   3     -11.212 -27.646 -20.383  0.00  0.00    +0.116 C 
BRANCH  17  18
ATOM     18  CD  GLU A   3     -11.784 -28.019 -21.743  0.00  0.00    +0.365 C 
ATOM     19  OE2 GLU A   3     -11.510 -29.129 -22.259  0.00  0.00    -0.246 OA
ATOM     20  OE1 GLU A   3     -12.493 -27.160 -22.316  0.00  0.00    -0.246 OA
ENDBRANCH  17  18
ENDBRANCH  16  17
ENDBRANCH  13  16
ENDBRANCH  11  13
ENDBRANCH   1   9
BRANCH   1  21
ATOM     21  CB  ASN A   2      -6.659 -28.737 -20.072  0.00  0.00    +0.114 C 
BRANCH  21  22
ATOM     22  CG  ASN A   2      -7.585 -28.047 -21.065  0.00  0.00    +0.222 C 
ATOM     23  OD1 ASN A   2      -7.524 -26.828 -21.252  0.00  0.00    -0.275 OA
ATOM     24  ND2 ASN A   2      -8.424 -28.834 -21.733  0.00  0.00    -0.329 N 
ATOM     25 HD21 ASN A   2      -8.441 -29.856 -21.543  0.00  0.00    +0.145 HD
ATOM     26 HD22 ASN A   2      -9.063 -28.427 -22.446  0.00  0.00    +0.145 HD
ENDBRANCH  21  22
ENDBRANCH   1  21
TORSDOF 11
REMARK  Name = ../refined-set-2016/3t0d/3t0d_pocket.pdb
REMARK  175 active torsions:
REMARK  status: ('A' for Active; 'I' for Inactive)
REMARK    1  A    between atoms: _1  and  _3
REMARK    2  A    between atoms: _3  and  _4
REMARK    3  A    between atoms: _3  and  _6
REMARK    4  A    between atoms: _6  and  _7
REMARK    5  A    between atoms: _12  and  _13
REMARK    6  A    between atoms: _15  and  _17
REMARK    7  A    between atoms: _17  and  _18
REMARK    8  A    between atoms: _17  and  _20
REMARK    9  A    between atoms: _20  and  _21
REMARK   10  A    between atoms: _24  and  _26
REMARK   11  A    between atoms: _26  and  _27
REMARK   12  A    between atoms: _26  and  _29
REMARK   13  A    between atoms: _29  and  _30
REMARK   14  A    between atoms: _35  and  _37
REMARK   15  A    between atoms: _37  and  _38
REMARK   16  A    between atoms: _37  and  _40
REMARK   17  A    between atoms: _43  and  _45
REMARK   18  A    between atoms: _45  and  _46
REMARK   19  A    between atoms: _45  and  _48
REMARK   20  A    between atoms: _48  and  _49
REMARK   21  A    between atoms: _52  and  _54
REMARK   22  A    between atoms: _54  and  _55
REMARK   23  A    between atoms: _54  and  _57
REMARK   24  A    between atoms: _57  and  _58
REMARK   25  A    between atoms: _58  and  _59
REMARK   26  A    between atoms: _64  and  _66
REMARK   27  A    between atoms: _66  and  _67
REMARK   28  A    between atoms: _66  and  _69
REMARK   29  A    between atoms: _69  and  _70
REMARK   30  A    between atoms: _73  and  _75
REMARK   31  A    between atoms: _75  and  _76
REMARK   32  A    between atoms: _75  and  _78
REMARK   33  A    between atoms: _78  and  _79
REMARK   34  A    between atoms: _79  and  _80
REMARK   35  A    between atoms: _82  and  _84
REMARK   36  A    between atoms: _84  and  _85
REMARK   37  A    between atoms: _84  and  _87
REMARK   38  A    between atoms: _87  and  _88
REMARK   39  A    between atoms: _88  and  _89
REMARK   40  A    between atoms: _89  and  _90
REMARK   41  A    between atoms: _99  and  _101
REMARK   42  A    between atoms: _101  and  _102
REMARK   43  A    between atoms: _101  and  _104
REMARK   44  A    between atoms: _104  and  _105
REMARK   45  A    between atoms: _110  and  _112
REMARK   46  A    between atoms: _112  and  _113
REMARK   47  A    between atoms: _112  and  _115
REMARK   48  A    between atoms: _115  and  _116
REMARK   49  A    between atoms: _121  and  _123
REMARK   50  A    between atoms: _123  and  _124
REMARK   51  A    between atoms: _123  and  _126
REMARK   52  A    between atoms: _126  and  _127
REMARK   53  A    between atoms: _127  and  _128
REMARK   54  A    between atoms: _128  and  _129
REMARK   55  A    between atoms: _138  and  _140
REMARK   56  A    between atoms: _140  and  _141
REMARK   57  A    between atoms: _140  and  _143
REMARK   58  A    between atoms: _143  and  _144
REMARK   59  A    between atoms: _146  and  _148
REMARK   60  A    between atoms: _148  and  _149
REMARK   61  A    between atoms: _148  and  _151
REMARK   62  A    between atoms: _151  and  _152
REMARK   63  A    between atoms: _157  and  _159
REMARK   64  A    between atoms: _159  and  _160
REMARK   65  A    between atoms: _159  and  _162
REMARK   66  A    between atoms: _162  and  _163
REMARK   67  A    between atoms: _163  and  _164
REMARK   68  A    between atoms: _167  and  _169
REMARK   69  A    between atoms: _169  and  _170
REMARK   70  A    between atoms: _169  and  _172
REMARK   71  A    between atoms: _172  and  _173
REMARK   72  A    between atoms: _173  and  _174
REMARK   73  A    between atoms: _177  and  _179
REMARK   74  A    between atoms: _179  and  _180
REMARK   75  A    between atoms: _179  and  _182
REMARK   76  A    between atoms: _182  and  _183
REMARK   77  A    between atoms: _184  and  MG_424
REMARK   78  A    between atoms: _188  and  _190
REMARK   79  A    between atoms: _190  and  _191
REMARK   80  A    between atoms: _193  and  _195
REMARK   81  A    between atoms: _195  and  _196
REMARK   82  A    between atoms: _195  and  _198
REMARK   83  A    between atoms: _198  and  _199
REMARK   84  A    between atoms: _204  and  _206
REMARK   85  A    between atoms: _206  and  _207
REMARK   86  A    between atoms: _206  and  _209
REMARK   87  A    between atoms: _209  and  _210
REMARK   88  A    between atoms: _210  and  _211
REMARK   89  A    between atoms: _214  and  _216
REMARK   90  A    between atoms: _216  and  _217
REMARK   91  A    between atoms: _216  and  _219
REMARK   92  A    between atoms: _219  and  _220
REMARK   93  A    between atoms: _220  and  _221
REMARK   94  A    between atoms: _224  and  _226
REMARK   95  A    between atoms: _226  and  _227
REMARK   96  A    between atoms: _226  and  _229
REMARK   97  A    between atoms: _229  and  _230
REMARK   98  A    between atoms: _230  and  _231
REMARK   99  A    between atoms: _233  and  _235
REMARK  100  A    between atoms: _235  and  _236
REMARK  101  A    between atoms: _235  and  _238
REMARK  102  A    between atoms: _238  and  _239
REMARK  103  A    between atoms: _244  and  _245
REMARK  104  A    between atoms: _247  and  _249
REMARK  105  A    between atoms: _249  and  _250
REMARK  106  A    between atoms: _249  and  _252
REMARK  107  A    between atoms: _252  and  _253
REMARK  108  A    between atoms: _253  and  _254
REMARK  109  A    between atoms: _254  and  _255
REMARK  110  A    between atoms: _255  and  _256
REMARK  111  A    between atoms: _260  and  _262
REMARK  112  A    between atoms: _262  and  _263
REMARK  113  A    between atoms: _262  and  _265
REMARK  114  A    between atoms: _267  and  _269
REMARK  115  A    between atoms: _269  and  _270
REMARK  116  A    between atoms: _269  and  _272
REMARK  117  A    between atoms: _272  and  _273
REMARK  118  A    between atoms: _273  and  _274
REMARK  119  A    between atoms: _277  and  _279
REMARK  120  A    between atoms: _279  and  _280
REMARK  121  A    between atoms: _279  and  _282
REMARK  122  A    between atoms: _282  and  _283
REMARK  123  A    between atoms: _288  and  _290
REMARK  124  A    between atoms: _290  and  _291
REMARK  125  A    between atoms: _294  and  _296
REMARK  126  A    between atoms: _296  and  _297
REMARK  127  A    between atoms: _296  and  _299
REMARK  128  A    between atoms: _299  and  _300
REMARK  129  A    between atoms: _300  and  _301
REMARK  130  A    between atoms: _303  and  _305
REMARK  131  A    between atoms: _305  and  _306
REMARK  132  A    between atoms: _305  and  _308
REMARK  133  A    between atoms: _308  and  _309
REMARK  134  A    between atoms: _319  and  _321
REMARK  135  A    between atoms: _321  and  _322
REMARK  136  A    between atoms: _321  and  _324
REMARK  137  A    between atoms: _324  and  _325
REMARK  138  A    between atoms: _328  and  _330
REMARK  139  A    between atoms: _330  and  _331
REMARK  140  A    between atoms: _330  and  _333
REMARK  141  A    between atoms: _333  and  _334
REMARK  142  A    between atoms: _334  and  _335
REMARK  143  A    between atoms: _340  and  _342
REMARK  144  A    between atoms: _342  and  _343
REMARK  145  A    between atoms: _342  and  _345
REMARK  146  A    between atoms: _345  and  _346
REMARK  147  A    between atoms: _346  and  _347
REMARK  148  A    between atoms: _352  and  _354
REMARK  149  A    between atoms: _354  and  _355
REMARK  150  A    between atoms: _354  and  _357
REMARK  151  A    between atoms: _357  and  _358
REMARK  152  A    between atoms: _364  and  _366
REMARK  153  A    between atoms: _366  and  _367
REMARK  154  A    between atoms: _366  and  _369
REMARK  155  A    between atoms: _371  and  _373
REMARK  156  A    between atoms: _373  and  _374
REMARK  157  A    between atoms: _373  and  _376
REMARK  158  A    between atoms: _376  and  _377
REMARK  159  A    between atoms: _377  and  _378
REMARK  160  A    between atoms: _380  and  _382
REMARK  161  A    between atoms: _382  and  _383
REMARK  162  A    between atoms: _382  and  _385
REMARK  163  A    between atoms: _385  and  _386
REMARK  164  A    between atoms: _391  and  _393
REMARK  165  A    between atoms: _393  and  _394
REMARK  166  A    between atoms: _393  and  _396
REMARK  167  A    between atoms: _396  and  _397
REMARK  168  A    between atoms: _400  and  _402
REMARK  169  A    between atoms: _402  and  _403
REMARK  170  A    between atoms: _402  and  _405
REMARK  171  A    between atoms: _405  and  _406
REMARK  172  A    between atoms: _408  and  _410
REMARK  173  A    between atoms: _410  and  _411
REMARK  174  A    between atoms: _410  and  _413
REMARK  175  A    between atoms: _413  and  _414
REMARK                            x       y       z     vdW  Elec       q    Type
REMARK                         _______ _______ _______ _____ _____    ______ ____
ROOT
ATOM      1  CA  GLU A   1      -7.866 -21.614 -17.270  0.00  0.00    +0.134 C 
ENDROOT
BRANCH   1   2
ATOM      2  N   GLU A   1      -6.606 -22.198 -16.774  0.00  0.00    -0.239 NA
ATOM      3  H   GLU A   1      -6.277 -23.095 -17.185  0.00  0.00    +0.142 HD
ENDBRANCH   1   2
BRANCH   1   4
ATOM      4  C   GLU A   1      -9.109 -22.025 -16.475  0.00  0.00    +0.224 C 
ATOM      5  O   GLU A   1     -10.105 -21.290 -16.445  0.00  0.00    -0.287 OA
ENDBRANCH   1   4
BRANCH   1   6
ATOM      6  CB  GLU A   1      -8.043 -21.933 -18.767  0.00  0.00    +0.037 C 
BRANCH   6   7
ATOM      7  CG  GLU A   1      -9.332 -21.387 -19.431  0.00  0.00    +0.116 C 
BRANCH   7   8
ATOM      8  CD  GLU A   1     -10.569 -22.235 -19.152  0.00  0.00    +0.365 C 
ATOM      9  OE2 GLU A   1     -10.426 -23.429 -18.800  0.00  0.00    -0.246 OA
ATOM     10  OE1 GLU A   1     -11.688 -21.700 -19.279  0.00  0.00    -0.246 OA
ENDBRANCH   7   8
ENDBRANCH   6   7
ENDBRANCH   1   6
TORSDOF 5
REMARK  Name = ../refined-set-2016/3t0d/3t0d_pocket.pdb
REMARK  175 active torsions:
REMARK  status: ('A' for Active; 'I' for Inactive)
REMARK    1  A    between atoms: _1  and  _3
REMARK    2  A    between atoms: _3  and  _4
REMARK    3  A    between atoms: _3  and  _6
REMARK    4  A    between atoms: _6  and  _7
REMARK    5  A    between atoms: _12  and  _13
REMARK    6  A    between atoms: _15  and  _17
REMARK    7  A    between atoms: _17  and  _18
REMARK    8  A    between atoms: _17  and  _20
REMARK    9  A    between atoms: _20  and  _21
REMARK   10  A    between atoms: _24  and  _26
REMARK   11  A    between atoms: _26  and  _27
REMARK   12  A    between atoms: _26  and  _29
REMARK   13  A    between atoms: _29  and  _30
REMARK   14  A    between atoms: _35  and  _37
REMARK   15  A    between atoms: _37  and  _38
REMARK   16  A    between atoms: _37  and  _40
REMARK   17  A    between atoms: _43  and  _45
REMARK   18  A    between atoms: _45  and  _46
REMARK   19  A    between atoms: _45  and  _48
REMARK   20  A    between atoms: _48  and  _49
REMARK   21  A    between atoms: _52  and  _54
REMARK   22  A    between atoms: _54  and  _55
REMARK   23  A    between atoms: _54  and  _57
REMARK   24  A    between atoms: _57  and  _58
REMARK   25  A    between atoms: _58  and  _59
REMARK   26  A    between atoms: _64  and  _66
REMARK   27  A    between atoms: _66  and  _67
REMARK   28  A    between atoms: _66  and  _69
REMARK   29  A    between atoms: _69  and  _70
REMARK   30  A    between atoms: _73  and  _75
REMARK   31  A    between atoms: _75  and  _76
REMARK   32  A    between atoms: _75  and  _78
REMARK   33  A    between atoms: _78  and  _79
REMARK   34  A    between atoms: _79  and  _80
REMARK   35  A    between atoms: _82  and  _84
REMARK   36  A    between atoms: _84  and  _85
REMARK   37  A    between atoms: _84  and  _87
REMARK   38  A    between atoms: _87  and  _88
REMARK   39  A    between atoms: _88  and  _89
REMARK   40  A    between atoms: _89  and  _90
REMARK   41  A    between atoms: _99  and  _101
REMARK   42  A    between atoms: _101  and  _102
REMARK   43  A    between atoms: _101  and  _104
REMARK   44  A    between atoms: _104  and  _105
REMARK   45  A    between atoms: _110  and  _112
REMARK   46  A    between atoms: _112  and  _113
REMARK   47  A    between atoms: _112  and  _115
REMARK   48  A    between atoms: _115  and  _116
REMARK   49  A    between atoms: _121  and  _123
REMARK   50  A    between atoms: _123  and  _124
REMARK   51  A    between atoms: _123  and  _126
REMARK   52  A    between atoms: _126  and  _127
REMARK   53  A    between atoms: _127  and  _128
REMARK   54  A    between atoms: _128  and  _129
REMARK   55  A    between atoms: _138  and  _140
REMARK   56  A    between atoms: _140  and  _141
REMARK   57  A    between atoms: _140  and  _143
REMARK   58  A    between atoms: _143  and  _144
REMARK   59  A    between atoms: _146  and  _148
REMARK   60  A    between atoms: _148  and  _149
REMARK   61  A    between atoms: _148  and  _151
REMARK   62  A    between atoms: _151  and  _152
REMARK   63  A    between atoms: _157  and  _159
REMARK   64  A    between atoms: _159  and  _160
REMARK   65  A    between atoms: _159  and  _162
REMARK   66  A    between atoms: _162  and  _163
REMARK   67  A    between atoms: _163  and  _164
REMARK   68  A    between atoms: _167  and  _169
REMARK   69  A    between atoms: _169  and  _170
REMARK   70  A    between atoms: _169  and  _172
REMARK   71  A    between atoms: _172  and  _173
REMARK   72  A    between atoms: _173  and  _174
REMARK   73  A    between atoms: _177  and  _179
REMARK   74  A    between atoms: _179  and  _180
REMARK   75  A    between atoms: _179  and  _182
REMARK   76  A    between atoms: _182  and  _183
REMARK   77  A    between atoms: _184  and  MG_424
REMARK   78  A    between atoms: _188  and  _190
REMARK   79  A    between atoms: _190  and  _191
REMARK   80  A    between atoms: _193  and  _195
REMARK   81  A    between atoms: _195  and  _196
REMARK   82  A    between atoms: _195  and  _198
REMARK   83  A    between atoms: _198  and  _199
REMARK   84  A    between atoms: _204  and  _206
REMARK   85  A    between atoms: _206  and  _207
REMARK   86  A    between atoms: _206  and  _209
REMARK   87  A    between atoms: _209  and  _210
REMARK   88  A    between atoms: _210  and  _211
REMARK   89  A    between atoms: _214  and  _216
REMARK   90  A    between atoms: _216  and  _217
REMARK   91  A    between atoms: _216  and  _219
REMARK   92  A    between atoms: _219  and  _220
REMARK   93  A    between atoms: _220  and  _221
REMARK   94  A    between atoms: _224  and  _226
REMARK   95  A    between atoms: _226  and  _227
REMARK   96  A    between atoms: _226  and  _229
REMARK   97  A    between atoms: _229  and  _230
REMARK   98  A    between atoms: _230  and  _231
REMARK   99  A    between atoms: _233  and  _235
REMARK  100  A    between atoms: _235  and  _236
REMARK  101  A    between atoms: _235  and  _238
REMARK  102  A    between atoms: _238  and  _239
REMARK  103  A    between atoms: _244  and  _245
REMARK  104  A    between atoms: _247  and  _249
REMARK  105  A    between atoms: _249  and  _250
REMARK  106  A    between atoms: _249  and  _252
REMARK  107  A    between atoms: _252  and  _253
REMARK  108  A    between atoms: _253  and  _254
REMARK  109  A    between atoms: _254  and  _255
REMARK  110  A    between atoms: _255  and  _256
REMARK  111  A    between atoms: _260  and  _262
REMARK  112  A    between atoms: _262  and  _263
REMARK  113  A    between atoms: _262  and  _265
REMARK  114  A    between atoms: _267  and  _269
REMARK  115  A    between atoms: _269  and  _270
REMARK  116  A    between atoms: _269  and  _272
REMARK  117  A    between atoms: _272  and  _273
REMARK  118  A    between atoms: _273  and  _274
REMARK  119  A    between atoms: _277  and  _279
REMARK  120  A    between atoms: _279  and  _280
REMARK  121  A    between atoms: _279  and  _282
REMARK  122  A    between atoms: _282  and  _283
REMARK  123  A    between atoms: _288  and  _290
REMARK  124  A    between atoms: _290  and  _291
REMARK  125  A    between atoms: _294  and  _296
REMARK  126  A    between atoms: _296  and  _297
REMARK  127  A    between atoms: _296  and  _299
REMARK  128  A    between atoms: _299  and  _300
REMARK  129  A    between atoms: _300  and  _301
REMARK  130  A    between atoms: _303  and  _305
REMARK  131  A    between atoms: _305  and  _306
REMARK  132  A    between atoms: _305  and  _308
REMARK  133  A    between atoms: _308  and  _309
REMARK  134  A    between atoms: _319  and  _321
REMARK  135  A    between atoms: _321  and  _322
REMARK  136  A    between atoms: _321  and  _324
REMARK  137  A    between atoms: _324  and  _325
REMARK  138  A    between atoms: _328  and  _330
REMARK  139  A    between atoms: _330  and  _331
REMARK  140  A    between atoms: _330  and  _333
REMARK  141  A    between atoms: _333  and  _334
REMARK  142  A    between atoms: _334  and  _335
REMARK  143  A    between atoms: _340  and  _342
REMARK  144  A    between atoms: _342  and  _343
REMARK  145  A    between atoms: _342  and  _345
REMARK  146  A    between atoms: _345  and  _346
REMARK  147  A    between atoms: _346  and  _347
REMARK  148  A    between atoms: _352  and  _354
REMARK  149  A    between atoms: _354  and  _355
REMARK  150  A    between atoms: _354  and  _357
REMARK  151  A    between atoms: _357  and  _358
REMARK  152  A    between atoms: _364  and  _366
REMARK  153  A    between atoms: _366  and  _367
REMARK  154  A    between atoms: _366  and  _369
REMARK  155  A    between atoms: _371  and  _373
REMARK  156  A    between atoms: _373  and  _374
REMARK  157  A    between atoms: _373  and  _376
REMARK  158  A    between atoms: _376  and  _377
REMARK  159  A    between atoms: _377  and  _378
REMARK  160  A    between atoms: _380  and  _382
REMARK  161  A    between atoms: _382  and  _383
REMARK  162  A    between atoms: _382  and  _385
REMARK  163  A    between atoms: _385  and  _386
REMARK  164  A    between atoms: _391  and  _393
REMARK  165  A    between atoms: _393  and  _394
REMARK  166  A    between atoms: _393  and  _396
REMARK  167  A    between atoms: _396  and  _397
REMARK  168  A    between atoms: _400  and  _402
REMARK  169  A    between atoms: _402  and  _403
REMARK  170  A    between atoms: _402  and  _405
REMARK  171  A    between atoms: _405  and  _406
REMARK  172  A    between atoms: _408  and  _410
REMARK  173  A    between atoms: _410  and  _411
REMARK  174  A    between atoms: _410  and  _413
REMARK  175  A    between atoms: _413  and  _414
REMARK                            x       y       z     vdW  Elec       q    Type
REMARK                         _______ _______ _______ _____ _____    ______ ____
ROOT
ATOM      1  CA  TYR A   2     -12.719 -18.750 -26.953  0.00  0.00    +0.141 C 
ENDROOT
BRANCH   1   4
ATOM      2  C   MET A   1     -11.872 -19.645 -24.807  0.00  0.00    +0.238 C 
ATOM      3  O   MET A   1     -12.980 -19.668 -24.266  0.00  0.00    -0.274 OA
ATOM      4  N   TYR A   2     -11.651 -19.158 -26.028  0.00  0.00    -0.298 N 
ATOM      5  H   TYR A   2     -10.665 -19.061 -26.345  0.00  0.00    +0.150 HD
BRANCH   2   6
ATOM      6  CA  MET A   1     -10.638 -20.139 -24.067  0.00  0.00    +0.146 C 
BRANCH   6   7
ATOM      7  N   MET A   1     -10.519 -19.418 -22.819  0.00  0.00    -0.238 NA
ATOM      8  H   MET A   1     -11.231 -19.561 -22.074  0.00  0.00    +0.142 HD
ENDBRANCH   6   7
BRANCH   6   9
ATOM      9  CB  MET A   1     -10.669 -21.656 -23.841  0.00  0.00    +0.038 C 
BRANCH   9  10
ATOM     10  CG  MET A   1     -11.627 -22.149 -22.760  0.00  0.00    +0.060 C 
BRANCH  10  11
ATOM     11  SD  MET A   1     -11.660 -23.962 -22.639  0.00  0.00    -0.139 S 
ATOM     12  CE  MET A   1      -9.946 -24.309 -22.252  0.00  0.00    +0.069 C 
ENDBRANCH  10  11
ENDBRANCH   9  10
ENDBRANCH   6   9
ENDBRANCH   2   6
ENDBRANCH   1   4
BRANCH   1  13
ATOM     13  C   TYR A   2     -13.531 -17.549 -26.465  0.00  0.00    +0.227 C 
ATOM     14  O   TYR A   2     -14.696 -17.376 -26.837  0.00  0.00    -0.286 OA
ENDBRANCH   1  13
BRANCH   1  15
ATOM     15  CB  TYR A   2     -13.617 -19.949 -27.317  0.00  0.00    +0.054 C 
BRANCH  15  16
ATOM     16  CG  TYR A   2     -12.802 -21.188 -27.617  0.00  0.00    -0.020 A 
ATOM     17  CD2 TYR A   2     -12.691 -22.211 -26.679  0.00  0.00    -0.001 A 
ATOM     18  CE2 TYR A   2     -11.927 -23.337 -26.932  0.00  0.00    +0.036 A 
ATOM     19  CZ  TYR A   2     -11.251 -23.442 -28.132  0.00  0.00    +0.134 A 
ATOM     20  CE1 TYR A   2     -11.330 -22.435 -29.085  0.00  0.00    +0.036 A 
ATOM     21  CD1 TYR A   2     -12.102 -21.312 -28.820  0.00  0.00    -0.001 A 
BRANCH  19  22
ATOM     22  OH  TYR A   2     -10.495 -24.551 -28.377  0.00  0.00    -0.506 OA
ATOM     23  HH  TYR A   2     -10.548 -25.163 -27.601  0.00  0.00    +0.292 HD
ENDBRANCH  19  22
ENDBRANCH  15  16
ENDBRANCH   1  15
TORSDOF 10
REMARK  Name = ../refined-set-2016/3t0d/3t0d_pocket.pdb
REMARK  175 active torsions:
REMARK  status: ('A' for Active; 'I' for Inactive)
REMARK    1  A    between atoms: _1  and  _3
REMARK    2  A    between atoms: _3  and  _4
REMARK    3  A    between atoms: _3  and  _6
REMARK    4  A    between atoms: _6  and  _7
REMARK    5  A    between atoms: _12  and  _13
REMARK    6  A    between atoms: _15  and  _17
REMARK    7  A    between atoms: _17  and  _18
REMARK    8  A    between atoms: _17  and  _20
REMARK    9  A    between atoms: _20  and  _21
REMARK   10  A    between atoms: _24  and  _26
REMARK   11  A    between atoms: _26  and  _27
REMARK   12  A    between atoms: _26  and  _29
REMARK   13  A    between atoms: _29  and  _30
REMARK   14  A    between atoms: _35  and  _37
REMARK   15  A    between atoms: _37  and  _38
REMARK   16  A    between atoms: _37  and  _40
REMARK   17  A    between atoms: _43  and  _45
REMARK   18  A    between atoms: _45  and  _46
REMARK   19  A    between atoms: _45  and  _48
REMARK   20  A    between atoms: _48  and  _49
REMARK   21  A    between atoms: _52  and  _54
REMARK   22  A    between atoms: _54  and  _55
REMARK   23  A    between atoms: _54  and  _57
REMARK   24  A    between atoms: _57  and  _58
REMARK   25  A    between atoms: _58  and  _59
REMARK   26  A    between atoms: _64  and  _66
REMARK   27  A    between atoms: _66  and  _67
REMARK   28  A    between atoms: _66  and  _69
REMARK   29  A    between atoms: _69  and  _70
REMARK   30  A    between atoms: _73  and  _75
REMARK   31  A    between atoms: _75  and  _76
REMARK   32  A    between atoms: _75  and  _78
REMARK   33  A    between atoms: _78  and  _79
REMARK   34  A    between atoms: _79  and  _80
REMARK   35  A    between atoms: _82  and  _84
REMARK   36  A    between atoms: _84  and  _85
REMARK   37  A    between atoms: _84  and  _87
REMARK   38  A    between atoms: _87  and  _88
REMARK   39  A    between atoms: _88  and  _89
REMARK   40  A    between atoms: _89  and  _90
REMARK   41  A    between atoms: _99  and  _101
REMARK   42  A    between atoms: _101  and  _102
REMARK   43  A    between atoms: _101  and  _104
REMARK   44  A    between atoms: _104  and  _105
REMARK   45  A    between atoms: _110  and  _112
REMARK   46  A    between atoms: _112  and  _113
REMARK   47  A    between atoms: _112  and  _115
REMARK   48  A    between atoms: _115  and  _116
REMARK   49  A    between atoms: _121  and  _123
REMARK   50  A    between atoms: _123  and  _124
REMARK   51  A    between atoms: _123  and  _126
REMARK   52  A    between atoms: _126  and  _127
REMARK   53  A    between atoms: _127  and  _128
REMARK   54  A    between atoms: _128  and  _129
REMARK   55  A    between atoms: _138  and  _140
REMARK   56  A    between atoms: _140  and  _141
REMARK   57  A    between atoms: _140  and  _143
REMARK   58  A    between atoms: _143  and  _144
REMARK   59  A    between atoms: _146  and  _148
REMARK   60  A    between atoms: _148  and  _149
REMARK   61  A    between atoms: _148  and  _151
REMARK   62  A    between atoms: _151  and  _152
REMARK   63  A    between atoms: _157  and  _159
REMARK   64  A    between atoms: _159  and  _160
REMARK   65  A    between atoms: _159  and  _162
REMARK   66  A    between atoms: _162  and  _163
REMARK   67  A    between atoms: _163  and  _164
REMARK   68  A    between atoms: _167  and  _169
REMARK   69  A    between atoms: _169  and  _170
REMARK   70  A    between atoms: _169  and  _172
REMARK   71  A    between atoms: _172  and  _173
REMARK   72  A    between atoms: _173  and  _174
REMARK   73  A    between atoms: _177  and  _179
REMARK   74  A    between atoms: _179  and  _180
REMARK   75  A    between atoms: _179  and  _182
REMARK   76  A    between atoms: _182  and  _183
REMARK   77  A    between atoms: _184  and  MG_424
REMARK   78  A    between atoms: _188  and  _190
REMARK   79  A    between atoms: _190  and  _191
REMARK   80  A    between atoms: _193  and  _195
REMARK   81  A    between atoms: _195  and  _196
REMARK   82  A    between atoms: _195  and  _198
REMARK   83  A    between atoms: _198  and  _199
REMARK   84  A    between atoms: _204  and  _206
REMARK   85  A    between atoms: _206  and  _207
REMARK   86  A    between atoms: _206  and  _209
REMARK   87  A    between atoms: _209  and  _210
REMARK   88  A    between atoms: _210  and  _211
REMARK   89  A    between atoms: _214  and  _216
REMARK   90  A    between atoms: _216  and  _217
REMARK   91  A    between atoms: _216  and  _219
REMARK   92  A    between atoms: _219  and  _220
REMARK   93  A    between atoms: _220  and  _221
REMARK   94  A    between atoms: _224  and  _226
REMARK   95  A    between atoms: _226  and  _227
REMARK   96  A    between atoms: _226  and  _229
REMARK   97  A    between atoms: _229  and  _230
REMARK   98  A    between atoms: _230  and  _231
REMARK   99  A    between atoms: _233  and  _235
REMARK  100  A    between atoms: _235  and  _236
REMARK  101  A    between atoms: _235  and  _238
REMARK  102  A    between atoms: _238  and  _239
REMARK  103  A    between atoms: _244  and  _245
REMARK  104  A    between atoms: _247  and  _249
REMARK  105  A    between atoms: _249  and  _250
REMARK  106  A    between atoms: _249  and  _252
REMARK  107  A    between atoms: _252  and  _253
REMARK  108  A    between atoms: _253  and  _254
REMARK  109  A    between atoms: _254  and  _255
REMARK  110  A    between atoms: _255  and  _256
REMARK  111  A    between atoms: _260  and  _262
REMARK  112  A    between atoms: _262  and  _263
REMARK  113  A    between atoms: _262  and  _265
REMARK  114  A    between atoms: _267  and  _269
REMARK  115  A    between atoms: _269  and  _270
REMARK  116  A    between atoms: _269  and  _272
REMARK  117  A    between atoms: _272  and  _273
REMARK  118  A    between atoms: _273  and  _274
REMARK  119  A    between atoms: _277  and  _279
REMARK  120  A    between atoms: _279  and  _280
REMARK  121  A    between atoms: _279  and  _282
REMARK  122  A    between atoms: _282  and  _283
REMARK  123  A    between atoms: _288  and  _290
REMARK  124  A    between atoms: _290  and  _291
REMARK  125  A    between atoms: _294  and  _296
REMARK  126  A    between atoms: _296  and  _297
REMARK  127  A    between atoms: _296  and  _299
REMARK  128  A    between atoms: _299  and  _300
REMARK  129  A    between atoms: _300  and  _301
REMARK  130  A    between atoms: _303  and  _305
REMARK  131  A    between atoms: _305  and  _306
REMARK  132  A    between atoms: _305  and  _308
REMARK  133  A    between atoms: _308  and  _309
REMARK  134  A    between atoms: _319  and  _321
REMARK  135  A    between atoms: _321  and  _322
REMARK  136  A    between atoms: _321  and  _324
REMARK  137  A    between atoms: _324  and  _325
REMARK  138  A    between atoms: _328  and  _330
REMARK  139  A    between atoms: _330  and  _331
REMARK  140  A    between atoms: _330  and  _333
REMARK  141  A    between atoms: _333  and  _334
REMARK  142  A    between atoms: _334  and  _335
REMARK  143  A    between atoms: _340  and  _342
REMARK  144  A    between atoms: _342  and  _343
REMARK  145  A    between atoms: _342  and  _345
REMARK  146  A    between atoms: _345  and  _346
REMARK  147  A    between atoms: _346  and  _347
REMARK  148  A    between atoms: _352  and  _354
REMARK  149  A    between atoms: _354  and  _355
REMARK  150  A    between atoms: _354  and  _357
REMARK  151  A    between atoms: _357  and  _358
REMARK  152  A    between atoms: _364  and  _366
REMARK  153  A    between atoms: _366  and  _367
REMARK  154  A    between atoms: _366  and  _369
REMARK  155  A    between atoms: _371  and  _373
REMARK  156  A    between atoms: _373  and  _374
REMARK  157  A    between atoms: _373  and  _376
REMARK  158  A    between atoms: _376  and  _377
REMARK  159  A    between atoms: _377  and  _378
REMARK  160  A    between atoms: _380  and  _382
REMARK  161  A    between atoms: _382  and  _383
REMARK  162  A    between atoms: _382  and  _385
REMARK  163  A    between atoms: _385  and  _386
REMARK  164  A    between atoms: _391  and  _393
REMARK  165  A    between atoms: _393  and  _394
REMARK  166  A    between atoms: _393  and  _396
REMARK  167  A    between atoms: _396  and  _397
REMARK  168  A    between atoms: _400  and  _402
REMARK  169  A    between atoms: _402  and  _403
REMARK  170  A    between atoms: _402  and  _405
REMARK  171  A    between atoms: _405  and  _406
REMARK  172  A    between atoms: _408  and  _410
REMARK  173  A    between atoms: _410  and  _411
REMARK  174  A    between atoms: _410  and  _413
REMARK  175  A    between atoms: _413  and  _414
REMARK                            x       y       z     vdW  Elec       q    Type
REMARK                         _______ _______ _______ _____ _____    ______ ____
ROOT
ATOM      1  CG  LYS A   1     -16.023 -17.710 -21.943  0.00  0.00    -0.000 C 
ENDROOT
BRANCH   1   2
ATOM      2  CB  LYS A   1     -16.260 -16.253 -22.254  0.00  0.00    +0.025 C 
BRANCH   2   3
ATOM      3  CA  LYS A   1     -16.286 -15.311 -21.047  0.00  0.00    +0.133 C 
BRANCH   3   4
ATOM      4  N   LYS A   1     -17.361 -15.653 -20.120  0.00  0.00    -0.239 NA
ATOM      5  H   LYS A   1     -18.320 -15.800 -20.495  0.00  0.00    +0.142 HD
ENDBRANCH   3   4
BRANCH   3   6
ATOM      6  C   LYS A   1     -16.525 -13.886 -21.520  0.00  0.00    +0.224 C 
ATOM      7  O   LYS A   1     -17.226 -13.658 -22.511  0.00  0.00    -0.287 OA
ENDBRANCH   3   6
ENDBRANCH   2   3
ENDBRANCH   1   2
BRANCH   1   8
ATOM      8  CD  LYS A   1     -15.789 -18.482 -23.238  0.00  0.00    -0.024 C 
BRANCH   8   9
ATOM      9  CE  LYS A   1     -15.889 -19.982 -23.026  0.00  0.00    -0.086 C 
BRANCH   9  10
ATOM     10  NZ  LYS A   1     -14.844 -20.478 -22.094  0.00  0.00    +0.380 N 
ATOM     11  HZ1 LYS A   1     -14.953 -20.009 -21.172  0.00  0.00    -0.089 HD
ATOM     12  HZ2 LYS A   1     -14.946 -21.506 -21.976  0.00  0.00    -0.089 HD
ATOM     13  HZ3 LYS A   1     -13.904 -20.265 -22.484  0.00  0.00    -0.089 HD
ENDBRANCH   9  10
ENDBRANCH   8   9
ENDBRANCH   1   8
TORSDOF 7
REMARK  Name = ../refined-set-2016/3t0d/3t0d_pocket.pdb
REMARK  175 active torsions:
REMARK  status: ('A' for Active; 'I' for Inactive)
REMARK    1  A    between atoms: _1  and  _3
REMARK    2  A    between atoms: _3  and  _4
REMARK    3  A    between atoms: _3  and  _6
REMARK    4  A    between atoms: _6  and  _7
REMARK    5  A    between atoms: _12  and  _13
REMARK    6  A    between atoms: _15  and  _17
REMARK    7  A    between atoms: _17  and  _18
REMARK    8  A    between atoms: _17  and  _20
REMARK    9  A    between atoms: _20  and  _21
REMARK   10  A    between atoms: _24  and  _26
REMARK   11  A    between atoms: _26  and  _27
REMARK   12  A    between atoms: _26  and  _29
REMARK   13  A    between atoms: _29  and  _30
REMARK   14  A    between atoms: _35  and  _37
REMARK   15  A    between atoms: _37  and  _38
REMARK   16  A    between atoms: _37  and  _40
REMARK   17  A    between atoms: _43  and  _45
REMARK   18  A    between atoms: _45  and  _46
REMARK   19  A    between atoms: _45  and  _48
REMARK   20  A    between atoms: _48  and  _49
REMARK   21  A    between atoms: _52  and  _54
REMARK   22  A    between atoms: _54  and  _55
REMARK   23  A    between atoms: _54  and  _57
REMARK   24  A    between atoms: _57  and  _58
REMARK   25  A    between atoms: _58  and  _59
REMARK   26  A    between atoms: _64  and  _66
REMARK   27  A    between atoms: _66  and  _67
REMARK   28  A    between atoms: _66  and  _69
REMARK   29  A    between atoms: _69  and  _70
REMARK   30  A    between atoms: _73  and  _75
REMARK   31  A    between atoms: _75  and  _76
REMARK   32  A    between atoms: _75  and  _78
REMARK   33  A    between atoms: _78  and  _79
REMARK   34  A    between atoms: _79  and  _80
REMARK   35  A    between atoms: _82  and  _84
REMARK   36  A    between atoms: _84  and  _85
REMARK   37  A    between atoms: _84  and  _87
REMARK   38  A    between atoms: _87  and  _88
REMARK   39  A    between atoms: _88  and  _89
REMARK   40  A    between atoms: _89  and  _90
REMARK   41  A    between atoms: _99  and  _101
REMARK   42  A    between atoms: _101  and  _102
REMARK   43  A    between atoms: _101  and  _104
REMARK   44  A    between atoms: _104  and  _105
REMARK   45  A    between atoms: _110  and  _112
REMARK   46  A    between atoms: _112  and  _113
REMARK   47  A    between atoms: _112  and  _115
REMARK   48  A    between atoms: _115  and  _116
REMARK   49  A    between atoms: _121  and  _123
REMARK   50  A    between atoms: _123  and  _124
REMARK   51  A    between atoms: _123  and  _126
REMARK   52  A    between atoms: _126  and  _127
REMARK   53  A    between atoms: _127  and  _128
REMARK   54  A    between atoms: _128  and  _129
REMARK   55  A    between atoms: _138  and  _140
REMARK   56  A    between atoms: _140  and  _141
REMARK   57  A    between atoms: _140  and  _143
REMARK   58  A    between atoms: _143  and  _144
REMARK   59  A    between atoms: _146  and  _148
REMARK   60  A    between atoms: _148  and  _149
REMARK   61  A    between atoms: _148  and  _151
REMARK   62  A    between atoms: _151  and  _152
REMARK   63  A    between atoms: _157  and  _159
REMARK   64  A    between atoms: _159  and  _160
REMARK   65  A    between atoms: _159  and  _162
REMARK   66  A    between atoms: _162  and  _163
REMARK   67  A    between atoms: _163  and  _164
REMARK   68  A    between atoms: _167  and  _169
REMARK   69  A    between atoms: _169  and  _170
REMARK   70  A    between atoms: _169  and  _172
REMARK   71  A    between atoms: _172  and  _173
REMARK   72  A    between atoms: _173  and  _174
REMARK   73  A    between atoms: _177  and  _179
REMARK   74  A    between atoms: _179  and  _180
REMARK   75  A    between atoms: _179  and  _182
REMARK   76  A    between atoms: _182  and  _183
REMARK   77  A    between atoms: _184  and  MG_424
REMARK   78  A    between atoms: _188  and  _190
REMARK   79  A    between atoms: _190  and  _191
REMARK   80  A    between atoms: _193  and  _195
REMARK   81  A    between atoms: _195  and  _196
REMARK   82  A    between atoms: _195  and  _198
REMARK   83  A    between atoms: _198  and  _199
REMARK   84  A    between atoms: _204  and  _206
REMARK   85  A    between atoms: _206  and  _207
REMARK   86  A    between atoms: _206  and  _209
REMARK   87  A    between atoms: _209  and  _210
REMARK   88  A    between atoms: _210  and  _211
REMARK   89  A    between atoms: _214  and  _216
REMARK   90  A    between atoms: _216  and  _217
REMARK   91  A    between atoms: _216  and  _219
REMARK   92  A    between atoms: _219  and  _220
REMARK   93  A    between atoms: _220  and  _221
REMARK   94  A    between atoms: _224  and  _226
REMARK   95  A    between atoms: _226  and  _227
REMARK   96  A    between atoms: _226  and  _229
REMARK   97  A    between atoms: _229  and  _230
REMARK   98  A    between atoms: _230  and  _231
REMARK   99  A    between atoms: _233  and  _235
REMARK  100  A    between atoms: _235  and  _236
REMARK  101  A    between atoms: _235  and  _238
REMARK  102  A    between atoms: _238  and  _239
REMARK  103  A    between atoms: _244  and  _245
REMARK  104  A    between atoms: _247  and  _249
REMARK  105  A    between atoms: _249  and  _250
REMARK  106  A    between atoms: _249  and  _252
REMARK  107  A    between atoms: _252  and  _253
REMARK  108  A    between atoms: _253  and  _254
REMARK  109  A    between atoms: _254  and  _255
REMARK  110  A    between atoms: _255  and  _256
REMARK  111  A    between atoms: _260  and  _262
REMARK  112  A    between atoms: _262  and  _263
REMARK  113  A    between atoms: _262  and  _265
REMARK  114  A    between atoms: _267  and  _269
REMARK  115  A    between atoms: _269  and  _270
REMARK  116  A    between atoms: _269  and  _272
REMARK  117  A    between atoms: _272  and  _273
REMARK  118  A    between atoms: _273  and  _274
REMARK  119  A    between atoms: _277  and  _279
REMARK  120  A    between atoms: _279  and  _280
REMARK  121  A    between atoms: _279  and  _282
REMARK  122  A    between atoms: _282  and  _283
REMARK  123  A    between atoms: _288  and  _290
REMARK  124  A    between atoms: _290  and  _291
REMARK  125  A    between atoms: _294  and  _296
REMARK  126  A    between atoms: _296  and  _297
REMARK  127  A    between atoms: _296  and  _299
REMARK  128  A    between atoms: _299  and  _300
REMARK  129  A    between atoms: _300  and  _301
REMARK  130  A    between atoms: _303  and  _305
REMARK  131  A    between atoms: _305  and  _306
REMARK  132  A    between atoms: _305  and  _308
REMARK  133  A    between atoms: _308  and  _309
REMARK  134  A    between atoms: _319  and  _321
REMARK  135  A    between atoms: _321  and  _322
REMARK  136  A    between atoms: _321  and  _324
REMARK  137  A    between atoms: _324  and  _325
REMARK  138  A    between atoms: _328  and  _330
REMARK  139  A    between atoms: _330  and  _331
REMARK  140  A    between atoms: _330  and  _333
REMARK  141  A    between atoms: _333  and  _334
REMARK  142  A    between atoms: _334  and  _335
REMARK  143  A    between atoms: _340  and  _342
REMARK  144  A    between atoms: _342  and  _343
REMARK  145  A    between atoms: _342  and  _345
REMARK  146  A    between atoms: _345  and  _346
REMARK  147  A    between atoms: _346  and  _347
REMARK  148  A    between atoms: _352  and  _354
REMARK  149  A    between atoms: _354  and  _355
REMARK  150  A    between atoms: _354  and  _357
REMARK  151  A    between atoms: _357  and  _358
REMARK  152  A    between atoms: _364  and  _366
REMARK  153  A    between atoms: _366  and  _367
REMARK  154  A    between atoms: _366  and  _369
REMARK  155  A    between atoms: _371  and  _373
REMARK  156  A    between atoms: _373  and  _374
REMARK  157  A    between atoms: _373  and  _376
REMARK  158  A    between atoms: _376  and  _377
REMARK  159  A    between atoms: _377  and  _378
REMARK  160  A    between atoms: _380  and  _382
REMARK  161  A    between atoms: _382  and  _383
REMARK  162  A    between atoms: _382  and  _385
REMARK  163  A    between atoms: _385  and  _386
REMARK  164  A    between atoms: _391  and  _393
REMARK  165  A    between atoms: _393  and  _394
REMARK  166  A    between atoms: _393  and  _396
REMARK  167  A    between atoms: _396  and  _397
REMARK  168  A    between atoms: _400  and  _402
REMARK  169  A    between atoms: _402  and  _403
REMARK  170  A    between atoms: _402  and  _405
REMARK  171  A    between atoms: _405  and  _406
REMARK  172  A    between atoms: _408  and  _410
REMARK  173  A    between atoms: _410  and  _411
REMARK  174  A    between atoms: _410  and  _413
REMARK  175  A    between atoms: _413  and  _414
REMARK                            x       y       z     vdW  Elec       q    Type
REMARK                         _______ _______ _______ _____ _____    ______ ____
ROOT
ATOM      1  C   CYS A   1      -5.500 -21.217 -25.203  0.00  0.00    +0.239 C 
ATOM      2  N   GLU A   2      -6.714 -20.843 -25.627  0.00  0.00    -0.298 N 
ATOM      3  H   GLU A   2      -7.243 -20.159 -25.050  0.00  0.00    +0.150 HD
ATOM      4  O   CYS A   1      -4.807 -22.067 -25.762  0.00  0.00    -0.274 OA
ENDROOT
BRANCH   1   5
ATOM      5  CA  CYS A   1      -4.974 -20.503 -23.956  0.00  0.00    +0.156 C 
BRANCH   5   6
ATOM      6  N   CYS A   1      -5.571 -19.173 -23.849  0.00  0.00    -0.237 NA
ATOM      7  H   CYS A   1      -6.257 -18.968 -23.095  0.00  0.00    +0.142 HD
ENDBRANCH   5   6
BRANCH   5   8
ATOM      8  CB  CYS A   1      -5.170 -21.350 -22.685  0.00  0.00    +0.095 C 
ATOM      9  SG  CYS A   1      -6.857 -21.885 -22.330  0.00  0.00    -0.080 S 
ENDBRANCH   5   8
ENDBRANCH   1   5
BRANCH   2  10
ATOM     10  CA  GLU A   2      -7.343 -21.339 -26.856  0.00  0.00    +0.137 C 
BRANCH  10  11
ATOM     11  C   GLU A   2      -8.240 -20.268 -27.479  0.00  0.00    +0.227 C 
ATOM     12  O   GLU A   2      -9.046 -19.644 -26.788  0.00  0.00    -0.286 OA
ENDBRANCH  10  11
BRANCH  10  13
ATOM     13  CB  GLU A   2      -8.161 -22.613 -26.586  0.00  0.00    +0.039 C 
BRANCH  13  14
ATOM     14  CG  GLU A   2      -7.346 -23.753 -25.981  0.00  0.00    +0.116 C 
BRANCH  14  15
ATOM     15  CD  GLU A   2      -8.177 -24.957 -25.582  0.00  0.00    +0.365 C 
ATOM     16  OE2 GLU A   2      -7.707 -25.736 -24.726  0.00  0.00    -0.246 OA
ATOM     17  OE1 GLU A   2      -9.288 -25.128 -26.121  0.00  0.00    -0.246 OA
ENDBRANCH  14  15
ENDBRANCH  13  14
ENDBRANCH  10  13
ENDBRANCH   2  10
TORSDOF 8
REMARK  Name = ../refined-set-2016/3t0d/3t0d_pocket.pdb
REMARK  175 active torsions:
REMARK  status: ('A' for Active; 'I' for Inactive)
REMARK    1  A    between atoms: _1  and  _3
REMARK    2  A    between atoms: _3  and  _4
REMARK    3  A    between atoms: _3  and  _6
REMARK    4  A    between atoms: _6  and  _7
REMARK    5  A    between atoms: _12  and  _13
REMARK    6  A    between atoms: _15  and  _17
REMARK    7  A    between atoms: _17  and  _18
REMARK    8  A    between atoms: _17  and  _20
REMARK    9  A    between atoms: _20  and  _21
REMARK   10  A    between atoms: _24  and  _26
REMARK   11  A    between atoms: _26  and  _27
REMARK   12  A    between atoms: _26  and  _29
REMARK   13  A    between atoms: _29  and  _30
REMARK   14  A    between atoms: _35  and  _37
REMARK   15  A    between atoms: _37  and  _38
REMARK   16  A    between atoms: _37  and  _40
REMARK   17  A    between atoms: _43  and  _45
REMARK   18  A    between atoms: _45  and  _46
REMARK   19  A    between atoms: _45  and  _48
REMARK   20  A    between atoms: _48  and  _49
REMARK   21  A    between atoms: _52  and  _54
REMARK   22  A    between atoms: _54  and  _55
REMARK   23  A    between atoms: _54  and  _57
REMARK   24  A    between atoms: _57  and  _58
REMARK   25  A    between atoms: _58  and  _59
REMARK   26  A    between atoms: _64  and  _66
REMARK   27  A    between atoms: _66  and  _67
REMARK   28  A    between atoms: _66  and  _69
REMARK   29  A    between atoms: _69  and  _70
REMARK   30  A    between atoms: _73  and  _75
REMARK   31  A    between atoms: _75  and  _76
REMARK   32  A    between atoms: _75  and  _78
REMARK   33  A    between atoms: _78  and  _79
REMARK   34  A    between atoms: _79  and  _80
REMARK   35  A    between atoms: _82  and  _84
REMARK   36  A    between atoms: _84  and  _85
REMARK   37  A    between atoms: _84  and  _87
REMARK   38  A    between atoms: _87  and  _88
REMARK   39  A    between atoms: _88  and  _89
REMARK   40  A    between atoms: _89  and  _90
REMARK   41  A    between atoms: _99  and  _101
REMARK   42  A    between atoms: _101  and  _102
REMARK   43  A    between atoms: _101  and  _104
REMARK   44  A    between atoms: _104  and  _105
REMARK   45  A    between atoms: _110  and  _112
REMARK   46  A    between atoms: _112  and  _113
REMARK   47  A    between atoms: _112  and  _115
REMARK   48  A    between atoms: _115  and  _116
REMARK   49  A    between atoms: _121  and  _123
REMARK   50  A    between atoms: _123  and  _124
REMARK   51  A    between atoms: _123  and  _126
REMARK   52  A    between atoms: _126  and  _127
REMARK   53  A    between atoms: _127  and  _128
REMARK   54  A    between atoms: _128  and  _129
REMARK   55  A    between atoms: _138  and  _140
REMARK   56  A    between atoms: _140  and  _141
REMARK   57  A    between atoms: _140  and  _143
REMARK   58  A    between atoms: _143  and  _144
REMARK   59  A    between atoms: _146  and  _148
REMARK   60  A    between atoms: _148  and  _149
REMARK   61  A    between atoms: _148  and  _151
REMARK   62  A    between atoms: _151  and  _152
REMARK   63  A    between atoms: _157  and  _159
REMARK   64  A    between atoms: _159  and  _160
REMARK   65  A    between atoms: _159  and  _162
REMARK   66  A    between atoms: _162  and  _163
REMARK   67  A    between atoms: _163  and  _164
REMARK   68  A    between atoms: _167  and  _169
REMARK   69  A    between atoms: _169  and  _170
REMARK   70  A    between atoms: _169  and  _172
REMARK   71  A    between atoms: _172  and  _173
REMARK   72  A    between atoms: _173  and  _174
REMARK   73  A    between atoms: _177  and  _179
REMARK   74  A    between atoms: _179  and  _180
REMARK   75  A    between atoms: _179  and  _182
REMARK   76  A    between atoms: _182  and  _183
REMARK   77  A    between atoms: _184  and  MG_424
REMARK   78  A    between atoms: _188  and  _190
REMARK   79  A    between atoms: _190  and  _191
REMARK   80  A    between atoms: _193  and  _195
REMARK   81  A    between atoms: _195  and  _196
REMARK   82  A    between atoms: _195  and  _198
REMARK   83  A    between atoms: _198  and  _199
REMARK   84  A    between atoms: _204  and  _206
REMARK   85  A    between atoms: _206  and  _207
REMARK   86  A    between atoms: _206  and  _209
REMARK   87  A    between atoms: _209  and  _210
REMARK   88  A    between atoms: _210  and  _211
REMARK   89  A    between atoms: _214  and  _216
REMARK   90  A    between atoms: _216  and  _217
REMARK   91  A    between atoms: _216  and  _219
REMARK   92  A    between atoms: _219  and  _220
REMARK   93  A    between atoms: _220  and  _221
REMARK   94  A    between atoms: _224  and  _226
REMARK   95  A    between atoms: _226  and  _227
REMARK   96  A    between atoms: _226  and  _229
REMARK   97  A    between atoms: _229  and  _230
REMARK   98  A    between atoms: _230  and  _231
REMARK   99  A    between atoms: _233  and  _235
REMARK  100  A    between atoms: _235  and  _236
REMARK  101  A    between atoms: _235  and  _238
REMARK  102  A    between atoms: _238  and  _239
REMARK  103  A    between atoms: _244  and  _245
REMARK  104  A    between atoms: _247  and  _249
REMARK  105  A    between atoms: _249  and  _250
REMARK  106  A    between atoms: _249  and  _252
REMARK  107  A    between atoms: _252  and  _253
REMARK  108  A    between atoms: _253  and  _254
REMARK  109  A    between atoms: _254  and  _255
REMARK  110  A    between atoms: _255  and  _256
REMARK  111  A    between atoms: _260  and  _262
REMARK  112  A    between atoms: _262  and  _263
REMARK  113  A    between atoms: _262  and  _265
REMARK  114  A    between atoms: _267  and  _269
REMARK  115  A    between atoms: _269  and  _270
REMARK  116  A    between atoms: _269  and  _272
REMARK  117  A    between atoms: _272  and  _273
REMARK  118  A    between atoms: _273  and  _274
REMARK  119  A    between atoms: _277  and  _279
REMARK  120  A    between atoms: _279  and  _280
REMARK  121  A    between atoms: _279  and  _282
REMARK  122  A    between atoms: _282  and  _283
REMARK  123  A    between atoms: _288  and  _290
REMARK  124  A    between atoms: _290  and  _291
REMARK  125  A    between atoms: _294  and  _296
REMARK  126  A    between atoms: _296  and  _297
REMARK  127  A    between atoms: _296  and  _299
REMARK  128  A    between atoms: _299  and  _300
REMARK  129  A    between atoms: _300  and  _301
REMARK  130  A    between atoms: _303  and  _305
REMARK  131  A    between atoms: _305  and  _306
REMARK  132  A    between atoms: _305  and  _308
REMARK  133  A    between atoms: _308  and  _309
REMARK  134  A    between atoms: _319  and  _321
REMARK  135  A    between atoms: _321  and  _322
REMARK  136  A    between atoms: _321  and  _324
REMARK  137  A    between atoms: _324  and  _325
REMARK  138  A    between atoms: _328  and  _330
REMARK  139  A    between atoms: _330  and  _331
REMARK  140  A    between atoms: _330  and  _333
REMARK  141  A    between atoms: _333  and  _334
REMARK  142  A    between atoms: _334  and  _335
REMARK  143  A    between atoms: _340  and  _342
REMARK  144  A    between atoms: _342  and  _343
REMARK  145  A    between atoms: _342  and  _345
REMARK  146  A    between atoms: _345  and  _346
REMARK  147  A    between atoms: _346  and  _347
REMARK  148  A    between atoms: _352  and  _354
REMARK  149  A    between atoms: _354  and  _355
REMARK  150  A    between atoms: _354  and  _357
REMARK  151  A    between atoms: _357  and  _358
REMARK  152  A    between atoms: _364  and  _366
REMARK  153  A    between atoms: _366  and  _367
REMARK  154  A    between atoms: _366  and  _369
REMARK  155  A    between atoms: _371  and  _373
REMARK  156  A    between atoms: _373  and  _374
REMARK  157  A    between atoms: _373  and  _376
REMARK  158  A    between atoms: _376  and  _377
REMARK  159  A    between atoms: _377  and  _378
REMARK  160  A    between atoms: _380  and  _382
REMARK  161  A    between atoms: _382  and  _383
REMARK  162  A    between atoms: _382  and  _385
REMARK  163  A    between atoms: _385  and  _386
REMARK  164  A    between atoms: _391  and  _393
REMARK  165  A    between atoms: _393  and  _394
REMARK  166  A    between atoms: _393  and  _396
REMARK  167  A    between atoms: _396  and  _397
REMARK  168  A    between atoms: _400  and  _402
REMARK  169  A    between atoms: _402  and  _403
REMARK  170  A    between atoms: _402  and  _405
REMARK  171  A    between atoms: _405  and  _406
REMARK  172  A    between atoms: _408  and  _410
REMARK  173  A    between atoms: _410  and  _411
REMARK  174  A    between atoms: _410  and  _413
REMARK  175  A    between atoms: _413  and  _414
REMARK                            x       y       z     vdW  Elec       q    Type
REMARK                         _______ _______ _______ _____ _____    ______ ____
ROOT
ATOM      1  C   HIS A   1     -11.268 -23.103 -34.817  0.00  0.00    +0.239 C 
ATOM      2  N   ALA A   2     -10.211 -23.768 -35.279  0.00  0.00    -0.297 N 
ATOM      3  H   ALA A   2      -9.553 -24.201 -34.600  0.00  0.00    +0.150 HD
ATOM      4  O   HIS A   1     -12.212 -22.758 -35.533  0.00  0.00    -0.274 OA
ENDROOT
BRANCH   2   5
ATOM      5  CA  ALA A   2      -9.945 -23.910 -36.718  0.00  0.00    +0.149 C 
ATOM      6  CB  ALA A   2      -8.441 -23.851 -36.985  0.00  0.00    +0.031 C 
BRANCH   5   7
ATOM      7  C   ALA A   2     -10.558 -25.169 -37.335  0.00  0.00    +0.241 C 
ATOM      8  N   MET A   3     -11.770 -25.496 -36.896  0.00  0.00    -0.298 N 
ATOM      9  H   MET A   3     -12.235 -24.873 -36.206  0.00  0.00    +0.150 HD
ATOM     10  O   ALA A   2      -9.951 -25.813 -38.194  0.00  0.00    -0.273 OA
BRANCH   8  11
ATOM     11  CA  MET A   3     -12.473 -26.693 -37.343  0.00  0.00    +0.138 C 
BRANCH  11  12
ATOM     12  C   MET A   3     -13.077 -26.532 -38.736  0.00  0.00    +0.227 C 
ATOM     13  O   MET A   3     -14.014 -25.752 -38.933  0.00  0.00    -0.286 OA
ENDBRANCH  11  12
BRANCH  11  14
ATOM     14  CB  MET A   3     -13.562 -27.048 -36.342  0.00  0.00    +0.039 C 
BRANCH  14  15
ATOM     15  CG  MET A   3     -14.338 -28.304 -36.684  0.00  0.00    +0.060 C 
BRANCH  15  16
ATOM     16  SD  MET A   3     -15.534 -28.589 -35.403  0.00  0.00    -0.139 S 
ATOM     17  CE  MET A   3     -16.172 -30.198 -35.890  0.00  0.00    +0.069 C 
ENDBRANCH  15  16
ENDBRANCH  14  15
ENDBRANCH  11  14
ENDBRANCH   8  11
ENDBRANCH   5   7
ENDBRANCH   2   5
BRANCH   1  18
ATOM     18  CA  HIS A   1     -11.255 -22.764 -33.323  0.00  0.00    +0.151 C 
BRANCH  18  19
ATOM     19  N   HIS A   1     -11.099 -21.319 -33.147  0.00  0.00    -0.238 NA
ATOM     20  H   HIS A   1     -11.854 -20.789 -32.667  0.00  0.00    +0.142 HD
ENDBRANCH  18  19
BRANCH  18  21
ATOM     21  CB  HIS A   1     -12.531 -23.222 -32.626  0.00  0.00    +0.074 C 
BRANCH  21  22
ATOM     22  CG  HIS A   1     -12.604 -24.697 -32.396  0.00  0.00    +0.082 A 
ATOM     23  CD2 HIS A   1     -12.029 -25.487 -31.459  0.00  0.00    +0.115 A 
ATOM     24  NE2 HIS A   1     -12.448 -26.774 -31.702  0.00  0.00    -0.221 NA
ATOM     25  CE1 HIS A   1     -13.259 -26.771 -32.743  0.00  0.00    +0.199 A 
ATOM     26  ND1 HIS A   1     -13.366 -25.530 -33.184  0.00  0.00    -0.227 NA
ENDBRANCH  21  22
ENDBRANCH  18  21
ENDBRANCH   1  18
TORSDOF 11
REMARK  Name = ../refined-set-2016/3t0d/3t0d_pocket.pdb
REMARK  175 active torsions:
REMARK  status: ('A' for Active; 'I' for Inactive)
REMARK    1  A    between atoms: _1  and  _3
REMARK    2  A    between atoms: _3  and  _4
REMARK    3  A    between atoms: _3  and  _6
REMARK    4  A    between atoms: _6  and  _7
REMARK    5  A    between atoms: _12  and  _13
REMARK    6  A    between atoms: _15  and  _17
REMARK    7  A    between atoms: _17  and  _18
REMARK    8  A    between atoms: _17  and  _20
REMARK    9  A    between atoms: _20  and  _21
REMARK   10  A    between atoms: _24  and  _26
REMARK   11  A    between atoms: _26  and  _27
REMARK   12  A    between atoms: _26  and  _29
REMARK   13  A    between atoms: _29  and  _30
REMARK   14  A    between atoms: _35  and  _37
REMARK   15  A    between atoms: _37  and  _38
REMARK   16  A    between atoms: _37  and  _40
REMARK   17  A    between atoms: _43  and  _45
REMARK   18  A    between atoms: _45  and  _46
REMARK   19  A    between atoms: _45  and  _48
REMARK   20  A    between atoms: _48  and  _49
REMARK   21  A    between atoms: _52  and  _54
REMARK   22  A    between atoms: _54  and  _55
REMARK   23  A    between atoms: _54  and  _57
REMARK   24  A    between atoms: _57  and  _58
REMARK   25  A    between atoms: _58  and  _59
REMARK   26  A    between atoms: _64  and  _66
REMARK   27  A    between atoms: _66  and  _67
REMARK   28  A    between atoms: _66  and  _69
REMARK   29  A    between atoms: _69  and  _70
REMARK   30  A    between atoms: _73  and  _75
REMARK   31  A    between atoms: _75  and  _76
REMARK   32  A    between atoms: _75  and  _78
REMARK   33  A    between atoms: _78  and  _79
REMARK   34  A    between atoms: _79  and  _80
REMARK   35  A    between atoms: _82  and  _84
REMARK   36  A    between atoms: _84  and  _85
REMARK   37  A    between atoms: _84  and  _87
REMARK   38  A    between atoms: _87  and  _88
REMARK   39  A    between atoms: _88  and  _89
REMARK   40  A    between atoms: _89  and  _90
REMARK   41  A    between atoms: _99  and  _101
REMARK   42  A    between atoms: _101  and  _102
REMARK   43  A    between atoms: _101  and  _104
REMARK   44  A    between atoms: _104  and  _105
REMARK   45  A    between atoms: _110  and  _112
REMARK   46  A    between atoms: _112  and  _113
REMARK   47  A    between atoms: _112  and  _115
REMARK   48  A    between atoms: _115  and  _116
REMARK   49  A    between atoms: _121  and  _123
REMARK   50  A    between atoms: _123  and  _124
REMARK   51  A    between atoms: _123  and  _126
REMARK   52  A    between atoms: _126  and  _127
REMARK   53  A    between atoms: _127  and  _128
REMARK   54  A    between atoms: _128  and  _129
REMARK   55  A    between atoms: _138  and  _140
REMARK   56  A    between atoms: _140  and  _141
REMARK   57  A    between atoms: _140  and  _143
REMARK   58  A    between atoms: _143  and  _144
REMARK   59  A    between atoms: _146  and  _148
REMARK   60  A    between atoms: _148  and  _149
REMARK   61  A    between atoms: _148  and  _151
REMARK   62  A    between atoms: _151  and  _152
REMARK   63  A    between atoms: _157  and  _159
REMARK   64  A    between atoms: _159  and  _160
REMARK   65  A    between atoms: _159  and  _162
REMARK   66  A    between atoms: _162  and  _163
REMARK   67  A    between atoms: _163  and  _164
REMARK   68  A    between atoms: _167  and  _169
REMARK   69  A    between atoms: _169  and  _170
REMARK   70  A    between atoms: _169  and  _172
REMARK   71  A    between atoms: _172  and  _173
REMARK   72  A    between atoms: _173  and  _174
REMARK   73  A    between atoms: _177  and  _179
REMARK   74  A    between atoms: _179  and  _180
REMARK   75  A    between atoms: _179  and  _182
REMARK   76  A    between atoms: _182  and  _183
REMARK   77  A    between atoms: _184  and  MG_424
REMARK   78  A    between atoms: _188  and  _190
REMARK   79  A    between atoms: _190  and  _191
REMARK   80  A    between atoms: _193  and  _195
REMARK   81  A    between atoms: _195  and  _196
REMARK   82  A    between atoms: _195  and  _198
REMARK   83  A    between atoms: _198  and  _199
REMARK   84  A    between atoms: _204  and  _206
REMARK   85  A    between atoms: _206  and  _207
REMARK   86  A    between atoms: _206  and  _209
REMARK   87  A    between atoms: _209  and  _210
REMARK   88  A    between atoms: _210  and  _211
REMARK   89  A    between atoms: _214  and  _216
REMARK   90  A    between atoms: _216  and  _217
REMARK   91  A    between atoms: _216  and  _219
REMARK   92  A    between atoms: _219  and  _220
REMARK   93  A    between atoms: _220  and  _221
REMARK   94  A    between atoms: _224  and  _226
REMARK   95  A    between atoms: _226  and  _227
REMARK   96  A    between atoms: _226  and  _229
REMARK   97  A    between atoms: _229  and  _230
REMARK   98  A    between atoms: _230  and  _231
REMARK   99  A    between atoms: _233  and  _235
REMARK  100  A    between atoms: _235  and  _236
REMARK  101  A    between atoms: _235  and  _238
REMARK  102  A    between atoms: _238  and  _239
REMARK  103  A    between atoms: _244  and  _245
REMARK  104  A    between atoms: _247  and  _249
REMARK  105  A    between atoms: _249  and  _250
REMARK  106  A    between atoms: _249  and  _252
REMARK  107  A    between atoms: _252  and  _253
REMARK  108  A    between atoms: _253  and  _254
REMARK  109  A    between atoms: _254  and  _255
REMARK  110  A    between atoms: _255  and  _256
REMARK  111  A    between atoms: _260  and  _262
REMARK  112  A    between atoms: _262  and  _263
REMARK  113  A    between atoms: _262  and  _265
REMARK  114  A    between atoms: _267  and  _269
REMARK  115  A    between atoms: _269  and  _270
REMARK  116  A    between atoms: _269  and  _272
REMARK  117  A    between atoms: _272  and  _273
REMARK  118  A    between atoms: _273  and  _274
REMARK  119  A    between atoms: _277  and  _279
REMARK  120  A    between atoms: _279  and  _280
REMARK  121  A    between atoms: _279  and  _282
REMARK  122  A    between atoms: _282  and  _283
REMARK  123  A    between atoms: _288  and  _290
REMARK  124  A    between atoms: _290  and  _291
REMARK  125  A    between atoms: _294  and  _296
REMARK  126  A    between atoms: _296  and  _297
REMARK  127  A    between atoms: _296  and  _299
REMARK  128  A    between atoms: _299  and  _300
REMARK  129  A    between atoms: _300  and  _301
REMARK  130  A    between atoms: _303  and  _305
REMARK  131  A    between atoms: _305  and  _306
REMARK  132  A    between atoms: _305  and  _308
REMARK  133  A    between atoms: _308  and  _309
REMARK  134  A    between atoms: _319  and  _321
REMARK  135  A    between atoms: _321  and  _322
REMARK  136  A    between atoms: _321  and  _324
REMARK  137  A    between atoms: _324  and  _325
REMARK  138  A    between atoms: _328  and  _330
REMARK  139  A    between atoms: _330  and  _331
REMARK  140  A    between atoms: _330  and  _333
REMARK  141  A    between atoms: _333  and  _334
REMARK  142  A    between atoms: _334  and  _335
REMARK  143  A    between atoms: _340  and  _342
REMARK  144  A    between atoms: _342  and  _343
REMARK  145  A    between atoms: _342  and  _345
REMARK  146  A    between atoms: _345  and  _346
REMARK  147  A    between atoms: _346  and  _347
REMARK  148  A    between atoms: _352  and  _354
REMARK  149  A    between atoms: _354  and  _355
REMARK  150  A    between atoms: _354  and  _357
REMARK  151  A    between atoms: _357  and  _358
REMARK  152  A    between atoms: _364  and  _366
REMARK  153  A    between atoms: _366  and  _367
REMARK  154  A    between atoms: _366  and  _369
REMARK  155  A    between atoms: _371  and  _373
REMARK  156  A    between atoms: _373  and  _374
REMARK  157  A    between atoms: _373  and  _376
REMARK  158  A    between atoms: _376  and  _377
REMARK  159  A    between atoms: _377  and  _378
REMARK  160  A    between atoms: _380  and  _382
REMARK  161  A    between atoms: _382  and  _383
REMARK  162  A    between atoms: _382  and  _385
REMARK  163  A    between atoms: _385  and  _386
REMARK  164  A    between atoms: _391  and  _393
REMARK  165  A    between atoms: _393  and  _394
REMARK  166  A    between atoms: _393  and  _396
REMARK  167  A    between atoms: _396  and  _397
REMARK  168  A    between atoms: _400  and  _402
REMARK  169  A    between atoms: _402  and  _403
REMARK  170  A    between atoms: _402  and  _405
REMARK  171  A    between atoms: _405  and  _406
REMARK  172  A    between atoms: _408  and  _410
REMARK  173  A    between atoms: _410  and  _411
REMARK  174  A    between atoms: _410  and  _413
REMARK  175  A    between atoms: _413  and  _414
REMARK                            x       y       z     vdW  Elec       q    Type
REMARK                         _______ _______ _______ _____ _____    ______ ____
ROOT
ATOM      1  CA  TRP A   1      -6.975 -24.303 -31.433  0.00  0.00    +0.149 C 
ENDROOT
BRANCH   1   2
ATOM      2  C   TRP A   1      -7.423 -24.825 -32.803  0.00  0.00    +0.239 C 
ATOM      3  O   TRP A   1      -8.475 -24.416 -33.294  0.00  0.00    -0.274 OA
ATOM      4  N   ASP A   2      -6.647 -25.712 -33.431  0.00  0.00    -0.298 N 
ATOM      5  H   ASP A   2      -7.013 -26.137 -34.307  0.00  0.00    +0.150 HD
BRANCH   4   6
ATOM      6  CA  ASP A   2      -5.316 -26.132 -32.977  0.00  0.00    +0.148 C 
BRANCH   6   7
ATOM      7  C   ASP A   2      -4.430 -26.435 -34.193  0.00  0.00    +0.227 C 
ATOM      8  O   ASP A   2      -4.746 -26.011 -35.308  0.00  0.00    -0.286 OA
ENDBRANCH   6   7
BRANCH   6   9
ATOM      9  CB  ASP A   2      -5.384 -27.306 -31.976  0.00  0.00    +0.142 C 
BRANCH   9  10
ATOM     10  CG  ASP A   2      -5.893 -28.615 -32.596  0.00  0.00    +0.367 C 
ATOM     11  OD2 ASP A   2      -5.793 -29.656 -31.911  0.00  0.00    -0.246 OA
ATOM     12  OD1 ASP A   2      -6.395 -28.616 -33.741  0.00  0.00    -0.246 OA
ENDBRANCH   9  10
ENDBRANCH   6   9
ENDBRANCH   4   6
ENDBRANCH   1   2
BRANCH   1  13
ATOM     13  N   TRP A   1      -6.573 -22.899 -31.503  0.00  0.00    -0.238 NA
ATOM     14  H   TRP A   1      -7.300 -22.158 -31.561  0.00  0.00    +0.142 HD
ENDBRANCH   1  13
BRANCH   1  15
ATOM     15  CB  TRP A   1      -8.079 -24.564 -30.396  0.00  0.00    +0.054 C 
BRANCH  15  16
ATOM     16  CG  TRP A   1      -8.239 -26.051 -30.235  0.00  0.00    -0.002 A 
ATOM     17  CD2 TRP A   1      -7.557 -26.889 -29.295  0.00  0.00    +0.013 A 
ATOM     18  CE3 TRP A   1      -6.665 -26.643 -28.243  0.00  0.00    +0.001 A 
ATOM     19  CZ3 TRP A   1      -6.197 -27.731 -27.490  0.00  0.00    +0.000 A 
ATOM     20  CH2 TRP A   1      -6.615 -29.045 -27.777  0.00  0.00    +0.001 A 
ATOM     21  CZ2 TRP A   1      -7.491 -29.311 -28.802  0.00  0.00    +0.017 A 
ATOM     22  CE2 TRP A   1      -7.962 -28.225 -29.552  0.00  0.00    +0.056 A 
ATOM     23  NE1 TRP A   1      -8.831 -28.196 -30.611  0.00  0.00    -0.352 N 
ATOM     24  HE1 TRP A   1      -9.298 -29.024 -31.032  0.00  0.00    +0.166 HD
ATOM     25  CD1 TRP A   1      -8.985 -26.891 -31.027  0.00  0.00    +0.068 A 
ENDBRANCH  15  16
ENDBRANCH   1  15
TORSDOF 8
REMARK  Name = ../refined-set-2016/3t0d/3t0d_pocket.pdb
REMARK  175 active torsions:
REMARK  status: ('A' for Active; 'I' for Inactive)
REMARK    1  A    between atoms: _1  and  _3
REMARK    2  A    between atoms: _3  and  _4
REMARK    3  A    between atoms: _3  and  _6
REMARK    4  A    between atoms: _6  and  _7
REMARK    5  A    between atoms: _12  and  _13
REMARK    6  A    between atoms: _15  and  _17
REMARK    7  A    between atoms: _17  and  _18
REMARK    8  A    between atoms: _17  and  _20
REMARK    9  A    between atoms: _20  and  _21
REMARK   10  A    between atoms: _24  and  _26
REMARK   11  A    between atoms: _26  and  _27
REMARK   12  A    between atoms: _26  and  _29
REMARK   13  A    between atoms: _29  and  _30
REMARK   14  A    between atoms: _35  and  _37
REMARK   15  A    between atoms: _37  and  _38
REMARK   16  A    between atoms: _37  and  _40
REMARK   17  A    between atoms: _43  and  _45
REMARK   18  A    between atoms: _45  and  _46
REMARK   19  A    between atoms: _45  and  _48
REMARK   20  A    between atoms: _48  and  _49
REMARK   21  A    between atoms: _52  and  _54
REMARK   22  A    between atoms: _54  and  _55
REMARK   23  A    between atoms: _54  and  _57
REMARK   24  A    between atoms: _57  and  _58
REMARK   25  A    between atoms: _58  and  _59
REMARK   26  A    between atoms: _64  and  _66
REMARK   27  A    between atoms: _66  and  _67
REMARK   28  A    between atoms: _66  and  _69
REMARK   29  A    between atoms: _69  and  _70
REMARK   30  A    between atoms: _73  and  _75
REMARK   31  A    between atoms: _75  and  _76
REMARK   32  A    between atoms: _75  and  _78
REMARK   33  A    between atoms: _78  and  _79
REMARK   34  A    between atoms: _79  and  _80
REMARK   35  A    between atoms: _82  and  _84
REMARK   36  A    between atoms: _84  and  _85
REMARK   37  A    between atoms: _84  and  _87
REMARK   38  A    between atoms: _87  and  _88
REMARK   39  A    between atoms: _88  and  _89
REMARK   40  A    between atoms: _89  and  _90
REMARK   41  A    between atoms: _99  and  _101
REMARK   42  A    between atoms: _101  and  _102
REMARK   43  A    between atoms: _101  and  _104
REMARK   44  A    between atoms: _104  and  _105
REMARK   45  A    between atoms: _110  and  _112
REMARK   46  A    between atoms: _112  and  _113
REMARK   47  A    between atoms: _112  and  _115
REMARK   48  A    between atoms: _115  and  _116
REMARK   49  A    between atoms: _121  and  _123
REMARK   50  A    between atoms: _123  and  _124
REMARK   51  A    between atoms: _123  and  _126
REMARK   52  A    between atoms: _126  and  _127
REMARK   53  A    between atoms: _127  and  _128
REMARK   54  A    between atoms: _128  and  _129
REMARK   55  A    between atoms: _138  and  _140
REMARK   56  A    between atoms: _140  and  _141
REMARK   57  A    between atoms: _140  and  _143
REMARK   58  A    between atoms: _143  and  _144
REMARK   59  A    between atoms: _146  and  _148
REMARK   60  A    between atoms: _148  and  _149
REMARK   61  A    between atoms: _148  and  _151
REMARK   62  A    between atoms: _151  and  _152
REMARK   63  A    between atoms: _157  and  _159
REMARK   64  A    between atoms: _159  and  _160
REMARK   65  A    between atoms: _159  and  _162
REMARK   66  A    between atoms: _162  and  _163
REMARK   67  A    between atoms: _163  and  _164
REMARK   68  A    between atoms: _167  and  _169
REMARK   69  A    between atoms: _169  and  _170
REMARK   70  A    between atoms: _169  and  _172
REMARK   71  A    between atoms: _172  and  _173
REMARK   72  A    between atoms: _173  and  _174
REMARK   73  A    between atoms: _177  and  _179
REMARK   74  A    between atoms: _179  and  _180
REMARK   75  A    between atoms: _179  and  _182
REMARK   76  A    between atoms: _182  and  _183
REMARK   77  A    between atoms: _184  and  MG_424
REMARK   78  A    between atoms: _188  and  _190
REMARK   79  A    between atoms: _190  and  _191
REMARK   80  A    between atoms: _193  and  _195
REMARK   81  A    between atoms: _195  and  _196
REMARK   82  A    between atoms: _195  and  _198
REMARK   83  A    between atoms: _198  and  _199
REMARK   84  A    between atoms: _204  and  _206
REMARK   85  A    between atoms: _206  and  _207
REMARK   86  A    between atoms: _206  and  _209
REMARK   87  A    between atoms: _209  and  _210
REMARK   88  A    between atoms: _210  and  _211
REMARK   89  A    between atoms: _214  and  _216
REMARK   90  A    between atoms: _216  and  _217
REMARK   91  A    between atoms: _216  and  _219
REMARK   92  A    between atoms: _219  and  _220
REMARK   93  A    between atoms: _220  and  _221
REMARK   94  A    between atoms: _224  and  _226
REMARK   95  A    between atoms: _226  and  _227
REMARK   96  A    between atoms: _226  and  _229
REMARK   97  A    between atoms: _229  and  _230
REMARK   98  A    between atoms: _230  and  _231
REMARK   99  A    between atoms: _233  and  _235
REMARK  100  A    between atoms: _235  and  _236
REMARK  101  A    between atoms: _235  and  _238
REMARK  102  A    between atoms: _238  and  _239
REMARK  103  A    between atoms: _244  and  _245
REMARK  104  A    between atoms: _247  and  _249
REMARK  105  A    between atoms: _249  and  _250
REMARK  106  A    between atoms: _249  and  _252
REMARK  107  A    between atoms: _252  and  _253
REMARK  108  A    between atoms: _253  and  _254
REMARK  109  A    between atoms: _254  and  _255
REMARK  110  A    between atoms: _255  and  _256
REMARK  111  A    between atoms: _260  and  _262
REMARK  112  A    between atoms: _262  and  _263
REMARK  113  A    between atoms: _262  and  _265
REMARK  114  A    between atoms: _267  and  _269
REMARK  115  A    between atoms: _269  and  _270
REMARK  116  A    between atoms: _269  and  _272
REMARK  117  A    between atoms: _272  and  _273
REMARK  118  A    between atoms: _273  and  _274
REMARK  119  A    between atoms: _277  and  _279
REMARK  120  A    between atoms: _279  and  _280
REMARK  121  A    between atoms: _279  and  _282
REMARK  122  A    between atoms: _282  and  _283
REMARK  123  A    between atoms: _288  and  _290
REMARK  124  A    between atoms: _290  and  _291
REMARK  125  A    between atoms: _294  and  _296
REMARK  126  A    between atoms: _296  and  _297
REMARK  127  A    between atoms: _296  and  _299
REMARK  128  A    between atoms: _299  and  _300
REMARK  129  A    between atoms: _300  and  _301
REMARK  130  A    between atoms: _303  and  _305
REMARK  131  A    between atoms: _305  and  _306
REMARK  132  A    between atoms: _305  and  _308
REMARK  133  A    between atoms: _308  and  _309
REMARK  134  A    between atoms: _319  and  _321
REMARK  135  A    between atoms: _321  and  _322
REMARK  136  A    between atoms: _321  and  _324
REMARK  137  A    between atoms: _324  and  _325
REMARK  138  A    between atoms: _328  and  _330
REMARK  139  A    between atoms: _330  and  _331
REMARK  140  A    between atoms: _330  and  _333
REMARK  141  A    between atoms: _333  and  _334
REMARK  142  A    between atoms: _334  and  _335
REMARK  143  A    between atoms: _340  and  _342
REMARK  144  A    between atoms: _342  and  _343
REMARK  145  A    between atoms: _342  and  _345
REMARK  146  A    between atoms: _345  and  _346
REMARK  147  A    between atoms: _346  and  _347
REMARK  148  A    between atoms: _352  and  _354
REMARK  149  A    between atoms: _354  and  _355
REMARK  150  A    between atoms: _354  and  _357
REMARK  151  A    between atoms: _357  and  _358
REMARK  152  A    between atoms: _364  and  _366
REMARK  153  A    between atoms: _366  and  _367
REMARK  154  A    between atoms: _366  and  _369
REMARK  155  A    between atoms: _371  and  _373
REMARK  156  A    between atoms: _373  and  _374
REMARK  157  A    between atoms: _373  and  _376
REMARK  158  A    between atoms: _376  and  _377
REMARK  159  A    between atoms: _377  and  _378
REMARK  160  A    between atoms: _380  and  _382
REMARK  161  A    between atoms: _382  and  _383
REMARK  162  A    between atoms: _382  and  _385
REMARK  163  A    between atoms: _385  and  _386
REMARK  164  A    between atoms: _391  and  _393
REMARK  165  A    between atoms: _393  and  _394
REMARK  166  A    between atoms: _393  and  _396
REMARK  167  A    between atoms: _396  and  _397
REMARK  168  A    between atoms: _400  and  _402
REMARK  169  A    between atoms: _402  and  _403
REMARK  170  A    between atoms: _402  and  _405
REMARK  171  A    between atoms: _405  and  _406
REMARK  172  A    between atoms: _408  and  _410
REMARK  173  A    between atoms: _410  and  _411
REMARK  174  A    between atoms: _410  and  _413
REMARK  175  A    between atoms: _413  and  _414
REMARK                            x       y       z     vdW  Elec       q    Type
REMARK                         _______ _______ _______ _____ _____    ______ ____
ROOT
ATOM      1  CB  GLN A   1      -7.144 -35.744 -33.862  0.00  0.00    +0.035 C 
ENDROOT
BRANCH   1   2
ATOM      2  CA  GLN A   1      -6.713 -35.675 -35.326  0.00  0.00    +0.134 C 
BRANCH   2   3
ATOM      3  N   GLN A   1      -6.889 -34.333 -35.881  0.00  0.00    -0.239 NA
ATOM      4  H   GLN A   1      -7.631 -33.710 -35.502  0.00  0.00    +0.142 HD
ENDBRANCH   2   3
BRANCH   2   5
ATOM      5  C   GLN A   1      -7.478 -36.725 -36.148  0.00  0.00    +0.224 C 
ATOM      6  O   GLN A   1      -8.310 -37.461 -35.611  0.00  0.00    -0.287 OA
ENDBRANCH   2   5
ENDBRANCH   1   2
BRANCH   1   7
ATOM      7  CG  GLN A   1      -6.278 -34.985 -32.875  0.00  0.00    +0.087 C 
BRANCH   7   8
ATOM      8  CD  GLN A   1      -6.681 -35.291 -31.444  0.00  0.00    +0.219 C 
ATOM      9  NE2 GLN A   1      -7.018 -34.250 -30.686  0.00  0.00    -0.329 N 
ATOM     10 HE21 GLN A   1      -7.317 -34.399 -29.701  0.00  0.00    +0.145 HD
ATOM     11 HE22 GLN A   1      -6.982 -33.288 -31.079  0.00  0.00    +0.145 HD
ATOM     12  OE1 GLN A   1      -6.705 -36.456 -31.029  0.00  0.00    -0.275 OA
ENDBRANCH   7   8
ENDBRANCH   1   7
TORSDOF 5
REMARK  Name = ../refined-set-2016/3t0d/3t0d_pocket.pdb
REMARK  175 active torsions:
REMARK  status: ('A' for Active; 'I' for Inactive)
REMARK    1  A    between atoms: _1  and  _3
REMARK    2  A    between atoms: _3  and  _4
REMARK    3  A    between atoms: _3  and  _6
REMARK    4  A    between atoms: _6  and  _7
REMARK    5  A    between atoms: _12  and  _13
REMARK    6  A    between atoms: _15  and  _17
REMARK    7  A    between atoms: _17  and  _18
REMARK    8  A    between atoms: _17  and  _20
REMARK    9  A    between atoms: _20  and  _21
REMARK   10  A    between atoms: _24  and  _26
REMARK   11  A    between atoms: _26  and  _27
REMARK   12  A    between atoms: _26  and  _29
REMARK   13  A    between atoms: _29  and  _30
REMARK   14  A    between atoms: _35  and  _37
REMARK   15  A    between atoms: _37  and  _38
REMARK   16  A    between atoms: _37  and  _40
REMARK   17  A    between atoms: _43  and  _45
REMARK   18  A    between atoms: _45  and  _46
REMARK   19  A    between atoms: _45  and  _48
REMARK   20  A    between atoms: _48  and  _49
REMARK   21  A    between atoms: _52  and  _54
REMARK   22  A    between atoms: _54  and  _55
REMARK   23  A    between atoms: _54  and  _57
REMARK   24  A    between atoms: _57  and  _58
REMARK   25  A    between atoms: _58  and  _59
REMARK   26  A    between atoms: _64  and  _66
REMARK   27  A    between atoms: _66  and  _67
REMARK   28  A    between atoms: _66  and  _69
REMARK   29  A    between atoms: _69  and  _70
REMARK   30  A    between atoms: _73  and  _75
REMARK   31  A    between atoms: _75  and  _76
REMARK   32  A    between atoms: _75  and  _78
REMARK   33  A    between atoms: _78  and  _79
REMARK   34  A    between atoms: _79  and  _80
REMARK   35  A    between atoms: _82  and  _84
REMARK   36  A    between atoms: _84  and  _85
REMARK   37  A    between atoms: _84  and  _87
REMARK   38  A    between atoms: _87  and  _88
REMARK   39  A    between atoms: _88  and  _89
REMARK   40  A    between atoms: _89  and  _90
REMARK   41  A    between atoms: _99  and  _101
REMARK   42  A    between atoms: _101  and  _102
REMARK   43  A    between atoms: _101  and  _104
REMARK   44  A    between atoms: _104  and  _105
REMARK   45  A    between atoms: _110  and  _112
REMARK   46  A    between atoms: _112  and  _113
REMARK   47  A    between atoms: _112  and  _115
REMARK   48  A    between atoms: _115  and  _116
REMARK   49  A    between atoms: _121  and  _123
REMARK   50  A    between atoms: _123  and  _124
REMARK   51  A    between atoms: _123  and  _126
REMARK   52  A    between atoms: _126  and  _127
REMARK   53  A    between atoms: _127  and  _128
REMARK   54  A    between atoms: _128  and  _129
REMARK   55  A    between atoms: _138  and  _140
REMARK   56  A    between atoms: _140  and  _141
REMARK   57  A    between atoms: _140  and  _143
REMARK   58  A    between atoms: _143  and  _144
REMARK   59  A    between atoms: _146  and  _148
REMARK   60  A    between atoms: _148  and  _149
REMARK   61  A    between atoms: _148  and  _151
REMARK   62  A    between atoms: _151  and  _152
REMARK   63  A    between atoms: _157  and  _159
REMARK   64  A    between atoms: _159  and  _160
REMARK   65  A    between atoms: _159  and  _162
REMARK   66  A    between atoms: _162  and  _163
REMARK   67  A    between atoms: _163  and  _164
REMARK   68  A    between atoms: _167  and  _169
REMARK   69  A    between atoms: _169  and  _170
REMARK   70  A    between atoms: _169  and  _172
REMARK   71  A    between atoms: _172  and  _173
REMARK   72  A    between atoms: _173  and  _174
REMARK   73  A    between atoms: _177  and  _179
REMARK   74  A    between atoms: _179  and  _180
REMARK   75  A    between atoms: _179  and  _182
REMARK   76  A    between atoms: _182  and  _183
REMARK   77  A    between atoms: _184  and  MG_424
REMARK   78  A    between atoms: _188  and  _190
REMARK   79  A    between atoms: _190  and  _191
REMARK   80  A    between atoms: _193  and  _195
REMARK   81  A    between atoms: _195  and  _196
REMARK   82  A    between atoms: _195  and  _198
REMARK   83  A    between atoms: _198  and  _199
REMARK   84  A    between atoms: _204  and  _206
REMARK   85  A    between atoms: _206  and  _207
REMARK   86  A    between atoms: _206  and  _209
REMARK   87  A    between atoms: _209  and  _210
REMARK   88  A    between atoms: _210  and  _211
REMARK   89  A    between atoms: _214  and  _216
REMARK   90  A    between atoms: _216  and  _217
REMARK   91  A    between atoms: _216  and  _219
REMARK   92  A    between atoms: _219  and  _220
REMARK   93  A    between atoms: _220  and  _221
REMARK   94  A    between atoms: _224  and  _226
REMARK   95  A    between atoms: _226  and  _227
REMARK   96  A    between atoms: _226  and  _229
REMARK   97  A    between atoms: _229  and  _230
REMARK   98  A    between atoms: _230  and  _231
REMARK   99  A    between atoms: _233  and  _235
REMARK  100  A    between atoms: _235  and  _236
REMARK  101  A    between atoms: _235  and  _238
REMARK  102  A    between atoms: _238  and  _239
REMARK  103  A    between atoms: _244  and  _245
REMARK  104  A    between atoms: _247  and  _249
REMARK  105  A    between atoms: _249  and  _250
REMARK  106  A    between atoms: _249  and  _252
REMARK  107  A    between atoms: _252  and  _253
REMARK  108  A    between atoms: _253  and  _254
REMARK  109  A    between atoms: _254  and  _255
REMARK  110  A    between atoms: _255  and  _256
REMARK  111  A    between atoms: _260  and  _262
REMARK  112  A    between atoms: _262  and  _263
REMARK  113  A    between atoms: _262  and  _265
REMARK  114  A    between atoms: _267  and  _269
REMARK  115  A    between atoms: _269  and  _270
REMARK  116  A    between atoms: _269  and  _272
REMARK  117  A    between atoms: _272  and  _273
REMARK  118  A    between atoms: _273  and  _274
REMARK  119  A    between atoms: _277  and  _279
REMARK  120  A    between atoms: _279  and  _280
REMARK  121  A    between atoms: _279  and  _282
REMARK  122  A    between atoms: _282  and  _283
REMARK  123  A    between atoms: _288  and  _290
REMARK  124  A    between atoms: _290  and  _291
REMARK  125  A    between atoms: _294  and  _296
REMARK  126  A    between atoms: _296  and  _297
REMARK  127  A    between atoms: _296  and  _299
REMARK  128  A    between atoms: _299  and  _300
REMARK  129  A    between atoms: _300  and  _301
REMARK  130  A    between atoms: _303  and  _305
REMARK  131  A    between atoms: _305  and  _306
REMARK  132  A    between atoms: _305  and  _308
REMARK  133  A    between atoms: _308  and  _309
REMARK  134  A    between atoms: _319  and  _321
REMARK  135  A    between atoms: _321  and  _322
REMARK  136  A    between atoms: _321  and  _324
REMARK  137  A    between atoms: _324  and  _325
REMARK  138  A    between atoms: _328  and  _330
REMARK  139  A    between atoms: _330  and  _331
REMARK  140  A    between atoms: _330  and  _333
REMARK  141  A    between atoms: _333  and  _334
REMARK  142  A    between atoms: _334  and  _335
REMARK  143  A    between atoms: _340  and  _342
REMARK  144  A    between atoms: _342  and  _343
REMARK  145  A    between atoms: _342  and  _345
REMARK  146  A    between atoms: _345  and  _346
REMARK  147  A    between atoms: _346  and  _347
REMARK  148  A    between atoms: _352  and  _354
REMARK  149  A    between atoms: _354  and  _355
REMARK  150  A    between atoms: _354  and  _357
REMARK  151  A    between atoms: _357  and  _358
REMARK  152  A    between atoms: _364  and  _366
REMARK  153  A    between atoms: _366  and  _367
REMARK  154  A    between atoms: _366  and  _369
REMARK  155  A    between atoms: _371  and  _373
REMARK  156  A    between atoms: _373  and  _374
REMARK  157  A    between atoms: _373  and  _376
REMARK  158  A    between atoms: _376  and  _377
REMARK  159  A    between atoms: _377  and  _378
REMARK  160  A    between atoms: _380  and  _382
REMARK  161  A    between atoms: _382  and  _383
REMARK  162  A    between atoms: _382  and  _385
REMARK  163  A    between atoms: _385  and  _386
REMARK  164  A    between atoms: _391  and  _393
REMARK  165  A    between atoms: _393  and  _394
REMARK  166  A    between atoms: _393  and  _396
REMARK  167  A    between atoms: _396  and  _397
REMARK  168  A    between atoms: _400  and  _402
REMARK  169  A    between atoms: _402  and  _403
REMARK  170  A    between atoms: _402  and  _405
REMARK  171  A    between atoms: _405  and  _406
REMARK  172  A    between atoms: _408  and  _410
REMARK  173  A    between atoms: _410  and  _411
REMARK  174  A    between atoms: _410  and  _413
REMARK  175  A    between atoms: _413  and  _414
REMARK                            x       y       z     vdW  Elec       q    Type
REMARK                         _______ _______ _______ _____ _____    ______ ____
ROOT
ATOM      1  C   PHE A   2     -13.460 -33.004 -33.071  0.00  0.00    +0.241 C 
ATOM      2  O   PHE A   2     -12.893 -32.169 -32.356  0.00  0.00    -0.273 OA
ATOM      3  N   CYS A   3     -12.851 -34.098 -33.525  0.00  0.00    -0.296 N 
ATOM      4  H   CYS A   3     -13.408 -34.798 -34.055  0.00  0.00    +0.150 HD
ENDROOT
BRANCH   3   5
ATOM      5  CA  CYS A   3     -11.427 -34.350 -33.305  0.00  0.00    +0.160 C 
BRANCH   5   6
ATOM      6  C   CYS A   3     -10.566 -33.680 -34.370  0.00  0.00    +0.242 C 
ATOM      7  O   CYS A   3      -9.342 -33.695 -34.271  0.00  0.00    -0.273 OA
ATOM      8  N   MET A   4     -11.202 -33.099 -35.385  0.00  0.00    -0.297 N 
ATOM      9  H   MET A   4     -12.242 -33.107 -35.407  0.00  0.00    +0.150 HD
BRANCH   8  10
ATOM     10  CA  MET A   4     -10.466 -32.449 -36.471  0.00  0.00    +0.149 C 
BRANCH  10  11
ATOM     11  C   MET A   4     -10.653 -30.932 -36.408  0.00  0.00    +0.241 C 
ATOM     12  N   ASN A   5      -9.692 -30.242 -35.783  0.00  0.00    -0.298 N 
ATOM     13  H   ASN A   5      -8.854 -30.751 -35.436  0.00  0.00    +0.150 HD
ATOM     14  O   MET A   4     -11.657 -30.404 -36.900  0.00  0.00    -0.273 OA
BRANCH  12  15
ATOM     15  CA  ASN A   5      -9.778 -28.790 -35.569  0.00  0.00    +0.146 C 
BRANCH  15  16
ATOM     16  C   ASN A   5      -8.525 -28.048 -36.029  0.00  0.00    +0.227 C 
ATOM     17  O   ASN A   5      -8.266 -26.924 -35.583  0.00  0.00    -0.286 OA
ENDBRANCH  15  16
BRANCH  15  18
ATOM     18  CB  ASN A   5      -9.999 -28.444 -34.081  0.00  0.00    +0.112 C 
BRANCH  18  19
ATOM     19  CG  ASN A   5     -10.938 -29.386 -33.366  0.00  0.00    +0.222 C 
ATOM     20  OD1 ASN A   5     -10.641 -29.826 -32.251  0.00  0.00    -0.275 OA
ATOM     21  ND2 ASN A   5     -12.089 -29.678 -33.972  0.00  0.00    -0.329 N 
ATOM     22 HD21 ASN A   5     -12.780 -30.300 -33.505  0.00  0.00    +0.145 HD
ATOM     23 HD22 ASN A   5     -12.296 -29.284 -34.912  0.00  0.00    +0.145 HD
ENDBRANCH  18  19
ENDBRANCH  15  18
ENDBRANCH  12  15
ENDBRANCH  10  11
BRANCH  10  24
ATOM     24  CB  MET A   4     -10.895 -32.998 -37.845  0.00  0.00    +0.041 C 
BRANCH  24  25
ATOM     25  CG  MET A   4     -10.736 -34.518 -38.016  0.00  0.00    +0.060 C 
BRANCH  25  26
ATOM     26  SD  MET A   4     -11.166 -35.085 -39.681  0.00  0.00    -0.139 S 
ATOM     27  CE  MET A   4     -12.886 -34.609 -39.733  0.00  0.00    +0.069 C 
ENDBRANCH  25  26
ENDBRANCH  24  25
ENDBRANCH  10  24
ENDBRANCH   8  10
ENDBRANCH   5   6
BRANCH   5  28
ATOM     28  CB  CYS A   3     -11.133 -35.851 -33.273  0.00  0.00    +0.098 C 
ATOM     29  SG  CYS A   3     -11.628 -36.737 -34.767  0.00  0.00    -0.080 S 
ENDBRANCH   5  28
ENDBRANCH   3   5
BRANCH   1  30
ATOM     30  CA  PHE A   2     -14.927 -32.810 -33.502  0.00  0.00    +0.153 C 
BRANCH  30  32
ATOM     31  C   GLN A   1     -14.921 -33.863 -35.725  0.00  0.00    +0.238 C 
ATOM     32  N   PHE A   2     -15.399 -33.801 -34.484  0.00  0.00    -0.297 N 
ATOM     33  H   PHE A   2     -16.134 -34.478 -34.197  0.00  0.00    +0.150 HD
ATOM     34  O   GLN A   1     -14.000 -33.148 -36.126  0.00  0.00    -0.274 OA
BRANCH  31  35
ATOM     35  CA  GLN A   1     -15.562 -34.889 -36.673  0.00  0.00    +0.145 C 
BRANCH  35  36
ATOM     36  N   GLN A   1     -16.651 -35.682 -36.084  0.00  0.00    -0.238 NA
ATOM     37  H   GLN A   1     -17.636 -35.416 -36.286  0.00  0.00    +0.142 HD
ENDBRANCH  35  36
BRANCH  35  38
ATOM     38  CB  GLN A   1     -16.017 -34.195 -37.967  0.00  0.00    +0.036 C 
BRANCH  38  39
ATOM     39  CG  GLN A   1     -17.038 -33.081 -37.773  0.00  0.00    +0.087 C 
BRANCH  39  40
ATOM     40  CD  GLN A   1     -18.473 -33.538 -37.991  0.00  0.00    +0.219 C 
ATOM     41  OE1 GLN A   1     -18.877 -34.612 -37.545  0.00  0.00    -0.275 OA
ATOM     42  NE2 GLN A   1     -19.256 -32.705 -38.675  0.00  0.00    -0.329 N 
ATOM     43 HE21 GLN A   1     -20.251 -32.952 -38.850  0.00  0.00    +0.145 HD
ATOM     44 HE22 GLN A   1     -18.872 -31.807 -39.034  0.00  0.00    +0.145 HD
ENDBRANCH  39  40
ENDBRANCH  38  39
ENDBRANCH  35  38
ENDBRANCH  31  35
ENDBRANCH  30  32
BRANCH  30  45
ATOM     45  CB  PHE A   2     -15.873 -32.758 -32.293  0.00  0.00    +0.055 C 
BRANCH  45  46
ATOM     46  CG  PHE A   2     -15.825 -31.457 -31.535  0.00  0.00    -0.020 A 
ATOM     47  CD2 PHE A   2     -15.347 -31.417 -30.227  0.00  0.00    -0.004 A 
ATOM     48  CE2 PHE A   2     -15.297 -30.210 -29.516  0.00  0.00    -0.000 A 
ATOM     49  CZ  PHE A   2     -15.734 -29.033 -30.118  0.00  0.00    -0.000 A 
ATOM     50  CE1 PHE A   2     -16.222 -29.064 -31.425  0.00  0.00    -0.000 A 
ATOM     51  CD1 PHE A   2     -16.267 -30.274 -32.123  0.00  0.00    -0.004 A 
ENDBRANCH  45  46
ENDBRANCH  30  45
ENDBRANCH   1  30
TORSDOF 21
REMARK  Name = ../refined-set-2016/3t0d/3t0d_pocket.pdb
REMARK  175 active torsions:
REMARK  status: ('A' for Active; 'I' for Inactive)
REMARK    1  A    between atoms: _1  and  _3
REMARK    2  A    between atoms: _3  and  _4
REMARK    3  A    between atoms: _3  and  _6
REMARK    4  A    between atoms: _6  and  _7
REMARK    5  A    between atoms: _12  and  _13
REMARK    6  A    between atoms: _15  and  _17
REMARK    7  A    between atoms: _17  and  _18
REMARK    8  A    between atoms: _17  and  _20
REMARK    9  A    between atoms: _20  and  _21
REMARK   10  A    between atoms: _24  and  _26
REMARK   11  A    between atoms: _26  and  _27
REMARK   12  A    between atoms: _26  and  _29
REMARK   13  A    between atoms: _29  and  _30
REMARK   14  A    between atoms: _35  and  _37
REMARK   15  A    between atoms: _37  and  _38
REMARK   16  A    between atoms: _37  and  _40
REMARK   17  A    between atoms: _43  and  _45
REMARK   18  A    between atoms: _45  and  _46
REMARK   19  A    between atoms: _45  and  _48
REMARK   20  A    between atoms: _48  and  _49
REMARK   21  A    between atoms: _52  and  _54
REMARK   22  A    between atoms: _54  and  _55
REMARK   23  A    between atoms: _54  and  _57
REMARK   24  A    between atoms: _57  and  _58
REMARK   25  A    between atoms: _58  and  _59
REMARK   26  A    between atoms: _64  and  _66
REMARK   27  A    between atoms: _66  and  _67
REMARK   28  A    between atoms: _66  and  _69
REMARK   29  A    between atoms: _69  and  _70
REMARK   30  A    between atoms: _73  and  _75
REMARK   31  A    between atoms: _75  and  _76
REMARK   32  A    between atoms: _75  and  _78
REMARK   33  A    between atoms: _78  and  _79
REMARK   34  A    between atoms: _79  and  _80
REMARK   35  A    between atoms: _82  and  _84
REMARK   36  A    between atoms: _84  and  _85
REMARK   37  A    between atoms: _84  and  _87
REMARK   38  A    between atoms: _87  and  _88
REMARK   39  A    between atoms: _88  and  _89
REMARK   40  A    between atoms: _89  and  _90
REMARK   41  A    between atoms: _99  and  _101
REMARK   42  A    between atoms: _101  and  _102
REMARK   43  A    between atoms: _101  and  _104
REMARK   44  A    between atoms: _104  and  _105
REMARK   45  A    between atoms: _110  and  _112
REMARK   46  A    between atoms: _112  and  _113
REMARK   47  A    between atoms: _112  and  _115
REMARK   48  A    between atoms: _115  and  _116
REMARK   49  A    between atoms: _121  and  _123
REMARK   50  A    between atoms: _123  and  _124
REMARK   51  A    between atoms: _123  and  _126
REMARK   52  A    between atoms: _126  and  _127
REMARK   53  A    between atoms: _127  and  _128
REMARK   54  A    between atoms: _128  and  _129
REMARK   55  A    between atoms: _138  and  _140
REMARK   56  A    between atoms: _140  and  _141
REMARK   57  A    between atoms: _140  and  _143
REMARK   58  A    between atoms: _143  and  _144
REMARK   59  A    between atoms: _146  and  _148
REMARK   60  A    between atoms: _148  and  _149
REMARK   61  A    between atoms: _148  and  _151
REMARK   62  A    between atoms: _151  and  _152
REMARK   63  A    between atoms: _157  and  _159
REMARK   64  A    between atoms: _159  and  _160
REMARK   65  A    between atoms: _159  and  _162
REMARK   66  A    between atoms: _162  and  _163
REMARK   67  A    between atoms: _163  and  _164
REMARK   68  A    between atoms: _167  and  _169
REMARK   69  A    between atoms: _169  and  _170
REMARK   70  A    between atoms: _169  and  _172
REMARK   71  A    between atoms: _172  and  _173
REMARK   72  A    between atoms: _173  and  _174
REMARK   73  A    between atoms: _177  and  _179
REMARK   74  A    between atoms: _179  and  _180
REMARK   75  A    between atoms: _179  and  _182
REMARK   76  A    between atoms: _182  and  _183
REMARK   77  A    between atoms: _184  and  MG_424
REMARK   78  A    between atoms: _188  and  _190
REMARK   79  A    between atoms: _190  and  _191
REMARK   80  A    between atoms: _193  and  _195
REMARK   81  A    between atoms: _195  and  _196
REMARK   82  A    between atoms: _195  and  _198
REMARK   83  A    between atoms: _198  and  _199
REMARK   84  A    between atoms: _204  and  _206
REMARK   85  A    between atoms: _206  and  _207
REMARK   86  A    between atoms: _206  and  _209
REMARK   87  A    between atoms: _209  and  _210
REMARK   88  A    between atoms: _210  and  _211
REMARK   89  A    between atoms: _214  and  _216
REMARK   90  A    between atoms: _216  and  _217
REMARK   91  A    between atoms: _216  and  _219
REMARK   92  A    between atoms: _219  and  _220
REMARK   93  A    between atoms: _220  and  _221
REMARK   94  A    between atoms: _224  and  _226
REMARK   95  A    between atoms: _226  and  _227
REMARK   96  A    between atoms: _226  and  _229
REMARK   97  A    between atoms: _229  and  _230
REMARK   98  A    between atoms: _230  and  _231
REMARK   99  A    between atoms: _233  and  _235
REMARK  100  A    between atoms: _235  and  _236
REMARK  101  A    between atoms: _235  and  _238
REMARK  102  A    between atoms: _238  and  _239
REMARK  103  A    between atoms: _244  and  _245
REMARK  104  A    between atoms: _247  and  _249
REMARK  105  A    between atoms: _249  and  _250
REMARK  106  A    between atoms: _249  and  _252
REMARK  107  A    between atoms: _252  and  _253
REMARK  108  A    between atoms: _253  and  _254
REMARK  109  A    between atoms: _254  and  _255
REMARK  110  A    between atoms: _255  and  _256
REMARK  111  A    between atoms: _260  and  _262
REMARK  112  A    between atoms: _262  and  _263
REMARK  113  A    between atoms: _262  and  _265
REMARK  114  A    between atoms: _267  and  _269
REMARK  115  A    between atoms: _269  and  _270
REMARK  116  A    between atoms: _269  and  _272
REMARK  117  A    between atoms: _272  and  _273
REMARK  118  A    between atoms: _273  and  _274
REMARK  119  A    between atoms: _277  and  _279
REMARK  120  A    between atoms: _279  and  _280
REMARK  121  A    between atoms: _279  and  _282
REMARK  122  A    between atoms: _282  and  _283
REMARK  123  A    between atoms: _288  and  _290
REMARK  124  A    between atoms: _290  and  _291
REMARK  125  A    between atoms: _294  and  _296
REMARK  126  A    between atoms: _296  and  _297
REMARK  127  A    between atoms: _296  and  _299
REMARK  128  A    between atoms: _299  and  _300
REMARK  129  A    between atoms: _300  and  _301
REMARK  130  A    between atoms: _303  and  _305
REMARK  131  A    between atoms: _305  and  _306
REMARK  132  A    between atoms: _305  and  _308
REMARK  133  A    between atoms: _308  and  _309
REMARK  134  A    between atoms: _319  and  _321
REMARK  135  A    between atoms: _321  and  _322
REMARK  136  A    between atoms: _321  and  _324
REMARK  137  A    between atoms: _324  and  _325
REMARK  138  A    between atoms: _328  and  _330
REMARK  139  A    between atoms: _330  and  _331
REMARK  140  A    between atoms: _330  and  _333
REMARK  141  A    between atoms: _333  and  _334
REMARK  142  A    between atoms: _334  and  _335
REMARK  143  A    between atoms: _340  and  _342
REMARK  144  A    between atoms: _342  and  _343
REMARK  145  A    between atoms: _342  and  _345
REMARK  146  A    between atoms: _345  and  _346
REMARK  147  A    between atoms: _346  and  _347
REMARK  148  A    between atoms: _352  and  _354
REMARK  149  A    between atoms: _354  and  _355
REMARK  150  A    between atoms: _354  and  _357
REMARK  151  A    between atoms: _357  and  _358
REMARK  152  A    between atoms: _364  and  _366
REMARK  153  A    between atoms: _366  and  _367
REMARK  154  A    between atoms: _366  and  _369
REMARK  155  A    between atoms: _371  and  _373
REMARK  156  A    between atoms: _373  and  _374
REMARK  157  A    between atoms: _373  and  _376
REMARK  158  A    between atoms: _376  and  _377
REMARK  159  A    between atoms: _377  and  _378
REMARK  160  A    between atoms: _380  and  _382
REMARK  161  A    between atoms: _382  and  _383
REMARK  162  A    between atoms: _382  and  _385
REMARK  163  A    between atoms: _385  and  _386
REMARK  164  A    between atoms: _391  and  _393
REMARK  165  A    between atoms: _393  and  _394
REMARK  166  A    between atoms: _393  and  _396
REMARK  167  A    between atoms: _396  and  _397
REMARK  168  A    between atoms: _400  and  _402
REMARK  169  A    between atoms: _402  and  _403
REMARK  170  A    between atoms: _402  and  _405
REMARK  171  A    between atoms: _405  and  _406
REMARK  172  A    between atoms: _408  and  _410
REMARK  173  A    between atoms: _410  and  _411
REMARK  174  A    between atoms: _410  and  _413
REMARK  175  A    between atoms: _413  and  _414
REMARK                            x       y       z     vdW  Elec       q    Type
REMARK                         _______ _______ _______ _____ _____    ______ ____
ROOT
ATOM      1  C   SER A   2     -18.724 -24.976 -32.728  0.00  0.00    +0.243 C 
ATOM      2  N   TRP A   3     -19.246 -24.442 -31.626  0.00  0.00    -0.298 N 
ATOM      3  H   TRP A   3     -18.846 -23.559 -31.250  0.00  0.00    +0.150 HD
ATOM      4  O   SER A   2     -19.152 -26.023 -33.231  0.00  0.00    -0.273 OA
ENDROOT
BRANCH   1   5
ATOM      5  CA  SER A   2     -17.547 -24.230 -33.368  0.00  0.00    +0.178 C 
BRANCH   5   7
ATOM      6  C   ASP A   1     -16.678 -22.098 -32.559  0.00  0.00    +0.239 C 
ATOM      7  N   SER A   2     -16.809 -23.413 -32.403  0.00  0.00    -0.295 N 
ATOM      8  H   SER A   2     -16.377 -23.871 -31.576  0.00  0.00    +0.150 HD
ATOM      9  O   ASP A   1     -17.196 -21.482 -33.489  0.00  0.00    -0.274 OA
BRANCH   6  10
ATOM     10  CA  ASP A   1     -15.840 -21.346 -31.522  0.00  0.00    +0.156 C 
BRANCH  10  11
ATOM     11  N   ASP A   1     -15.793 -19.937 -31.916  0.00  0.00    -0.238 NA
ATOM     12  H   ASP A   1     -16.606 -19.534 -32.424  0.00  0.00    +0.142 HD
ENDBRANCH  10  11
BRANCH  10  13
ATOM     13  CB  ASP A   1     -16.372 -21.532 -30.090  0.00  0.00    +0.140 C 
BRANCH  13  14
ATOM     14  CG  ASP A   1     -17.783 -21.018 -29.909  0.00  0.00    +0.367 C 
ATOM     15  OD2 ASP A   1     -17.958 -20.009 -29.195  0.00  0.00    -0.246 OA
ATOM     16  OD1 ASP A   1     -18.720 -21.632 -30.457  0.00  0.00    -0.246 OA
ENDBRANCH  13  14
ENDBRANCH  10  13
ENDBRANCH   6  10
ENDBRANCH   5   7
BRANCH   5  17
ATOM     17  CB  SER A   2     -16.598 -25.217 -34.064  0.00  0.00    +0.166 C 
BRANCH  17  18
ATOM     18  OG  SER A   2     -15.531 -24.536 -34.711  0.00  0.00    -0.380 OA
ATOM     19  H   SER A   2     -15.900 -23.919 -35.391  0.00  0.00    +0.211 HD
ENDBRANCH  17  18
ENDBRANCH   5  17
ENDBRANCH   1   5
BRANCH   2  20
ATOM     20  CA  TRP A   3     -20.375 -25.073 -30.930  0.00  0.00    +0.141 C 
BRANCH  20  21
ATOM     21  C   TRP A   3     -21.500 -24.096 -30.578  0.00  0.00    +0.227 C 
ATOM     22  O   TRP A   3     -22.444 -24.448 -29.877  0.00  0.00    -0.286 OA
ENDBRANCH  20  21
BRANCH  20  23
ATOM     23  CB  TRP A   3     -19.908 -25.854 -29.694  0.00  0.00    +0.056 C 
BRANCH  23  24
ATOM     24  CG  TRP A   3     -18.919 -25.134 -28.813  0.00  0.00    -0.002 A 
ATOM     25  CD1 TRP A   3     -19.196 -24.415 -27.683  0.00  0.00    +0.068 A 
ATOM     26  NE1 TRP A   3     -18.035 -23.921 -27.138  0.00  0.00    -0.352 N 
ATOM     27  HE1 TRP A   3     -17.971 -23.339 -26.279  0.00  0.00    +0.166 HD
ATOM     28  CE2 TRP A   3     -16.975 -24.320 -27.910  0.00  0.00    +0.056 A 
ATOM     29  CZ2 TRP A   3     -15.606 -24.068 -27.763  0.00  0.00    +0.017 A 
ATOM     30  CH2 TRP A   3     -14.758 -24.594 -28.707  0.00  0.00    +0.001 A 
ATOM     31  CZ3 TRP A   3     -15.243 -25.366 -29.785  0.00  0.00    +0.000 A 
ATOM     32  CE3 TRP A   3     -16.609 -25.618 -29.928  0.00  0.00    +0.001 A 
ATOM     33  CD2 TRP A   3     -17.496 -25.087 -28.980  0.00  0.00    +0.013 A 
ENDBRANCH  23  24
ENDBRANCH  20  23
ENDBRANCH   2  20
TORSDOF 12
REMARK  Name = ../refined-set-2016/3t0d/3t0d_pocket.pdb
REMARK  175 active torsions:
REMARK  status: ('A' for Active; 'I' for Inactive)
REMARK    1  A    between atoms: _1  and  _3
REMARK    2  A    between atoms: _3  and  _4
REMARK    3  A    between atoms: _3  and  _6
REMARK    4  A    between atoms: _6  and  _7
REMARK    5  A    between atoms: _12  and  _13
REMARK    6  A    between atoms: _15  and  _17
REMARK    7  A    between atoms: _17  and  _18
REMARK    8  A    between atoms: _17  and  _20
REMARK    9  A    between atoms: _20  and  _21
REMARK   10  A    between atoms: _24  and  _26
REMARK   11  A    between atoms: _26  and  _27
REMARK   12  A    between atoms: _26  and  _29
REMARK   13  A    between atoms: _29  and  _30
REMARK   14  A    between atoms: _35  and  _37
REMARK   15  A    between atoms: _37  and  _38
REMARK   16  A    between atoms: _37  and  _40
REMARK   17  A    between atoms: _43  and  _45
REMARK   18  A    between atoms: _45  and  _46
REMARK   19  A    between atoms: _45  and  _48
REMARK   20  A    between atoms: _48  and  _49
REMARK   21  A    between atoms: _52  and  _54
REMARK   22  A    between atoms: _54  and  _55
REMARK   23  A    between atoms: _54  and  _57
REMARK   24  A    between atoms: _57  and  _58
REMARK   25  A    between atoms: _58  and  _59
REMARK   26  A    between atoms: _64  and  _66
REMARK   27  A    between atoms: _66  and  _67
REMARK   28  A    between atoms: _66  and  _69
REMARK   29  A    between atoms: _69  and  _70
REMARK   30  A    between atoms: _73  and  _75
REMARK   31  A    between atoms: _75  and  _76
REMARK   32  A    between atoms: _75  and  _78
REMARK   33  A    between atoms: _78  and  _79
REMARK   34  A    between atoms: _79  and  _80
REMARK   35  A    between atoms: _82  and  _84
REMARK   36  A    between atoms: _84  and  _85
REMARK   37  A    between atoms: _84  and  _87
REMARK   38  A    between atoms: _87  and  _88
REMARK   39  A    between atoms: _88  and  _89
REMARK   40  A    between atoms: _89  and  _90
REMARK   41  A    between atoms: _99  and  _101
REMARK   42  A    between atoms: _101  and  _102
REMARK   43  A    between atoms: _101  and  _104
REMARK   44  A    between atoms: _104  and  _105
REMARK   45  A    between atoms: _110  and  _112
REMARK   46  A    between atoms: _112  and  _113
REMARK   47  A    between atoms: _112  and  _115
REMARK   48  A    between atoms: _115  and  _116
REMARK   49  A    between atoms: _121  and  _123
REMARK   50  A    between atoms: _123  and  _124
REMARK   51  A    between atoms: _123  and  _126
REMARK   52  A    between atoms: _126  and  _127
REMARK   53  A    between atoms: _127  and  _128
REMARK   54  A    between atoms: _128  and  _129
REMARK   55  A    between atoms: _138  and  _140
REMARK   56  A    between atoms: _140  and  _141
REMARK   57  A    between atoms: _140  and  _143
REMARK   58  A    between atoms: _143  and  _144
REMARK   59  A    between atoms: _146  and  _148
REMARK   60  A    between atoms: _148  and  _149
REMARK   61  A    between atoms: _148  and  _151
REMARK   62  A    between atoms: _151  and  _152
REMARK   63  A    between atoms: _157  and  _159
REMARK   64  A    between atoms: _159  and  _160
REMARK   65  A    between atoms: _159  and  _162
REMARK   66  A    between atoms: _162  and  _163
REMARK   67  A    between atoms: _163  and  _164
REMARK   68  A    between atoms: _167  and  _169
REMARK   69  A    between atoms: _169  and  _170
REMARK   70  A    between atoms: _169  and  _172
REMARK   71  A    between atoms: _172  and  _173
REMARK   72  A    between atoms: _173  and  _174
REMARK   73  A    between atoms: _177  and  _179
REMARK   74  A    between atoms: _179  and  _180
REMARK   75  A    between atoms: _179  and  _182
REMARK   76  A    between atoms: _182  and  _183
REMARK   77  A    between atoms: _184  and  MG_424
REMARK   78  A    between atoms: _188  and  _190
REMARK   79  A    between atoms: _190  and  _191
REMARK   80  A    between atoms: _193  and  _195
REMARK   81  A    between atoms: _195  and  _196
REMARK   82  A    between atoms: _195  and  _198
REMARK   83  A    between atoms: _198  and  _199
REMARK   84  A    between atoms: _204  and  _206
REMARK   85  A    between atoms: _206  and  _207
REMARK   86  A    between atoms: _206  and  _209
REMARK   87  A    between atoms: _209  and  _210
REMARK   88  A    between atoms: _210  and  _211
REMARK   89  A    between atoms: _214  and  _216
REMARK   90  A    between atoms: _216  and  _217
REMARK   91  A    between atoms: _216  and  _219
REMARK   92  A    between atoms: _219  and  _220
REMARK   93  A    between atoms: _220  and  _221
REMARK   94  A    between atoms: _224  and  _226
REMARK   95  A    between atoms: _226  and  _227
REMARK   96  A    between atoms: _226  and  _229
REMARK   97  A    between atoms: _229  and  _230
REMARK   98  A    between atoms: _230  and  _231
REMARK   99  A    between atoms: _233  and  _235
REMARK  100  A    between atoms: _235  and  _236
REMARK  101  A    between atoms: _235  and  _238
REMARK  102  A    between atoms: _238  and  _239
REMARK  103  A    between atoms: _244  and  _245
REMARK  104  A    between atoms: _247  and  _249
REMARK  105  A    between atoms: _249  and  _250
REMARK  106  A    between atoms: _249  and  _252
REMARK  107  A    between atoms: _252  and  _253
REMARK  108  A    between atoms: _253  and  _254
REMARK  109  A    between atoms: _254  and  _255
REMARK  110  A    between atoms: _255  and  _256
REMARK  111  A    between atoms: _260  and  _262
REMARK  112  A    between atoms: _262  and  _263
REMARK  113  A    between atoms: _262  and  _265
REMARK  114  A    between atoms: _267  and  _269
REMARK  115  A    between atoms: _269  and  _270
REMARK  116  A    between atoms: _269  and  _272
REMARK  117  A    between atoms: _272  and  _273
REMARK  118  A    between atoms: _273  and  _274
REMARK  119  A    between atoms: _277  and  _279
REMARK  120  A    between atoms: _279  and  _280
REMARK  121  A    between atoms: _279  and  _282
REMARK  122  A    between atoms: _282  and  _283
REMARK  123  A    between atoms: _288  and  _290
REMARK  124  A    between atoms: _290  and  _291
REMARK  125  A    between atoms: _294  and  _296
REMARK  126  A    between atoms: _296  and  _297
REMARK  127  A    between atoms: _296  and  _299
REMARK  128  A    between atoms: _299  and  _300
REMARK  129  A    between atoms: _300  and  _301
REMARK  130  A    between atoms: _303  and  _305
REMARK  131  A    between atoms: _305  and  _306
REMARK  132  A    between atoms: _305  and  _308
REMARK  133  A    between atoms: _308  and  _309
REMARK  134  A    between atoms: _319  and  _321
REMARK  135  A    between atoms: _321  and  _322
REMARK  136  A    between atoms: _321  and  _324
REMARK  137  A    between atoms: _324  and  _325
REMARK  138  A    between atoms: _328  and  _330
REMARK  139  A    between atoms: _330  and  _331
REMARK  140  A    between atoms: _330  and  _333
REMARK  141  A    between atoms: _333  and  _334
REMARK  142  A    between atoms: _334  and  _335
REMARK  143  A    between atoms: _340  and  _342
REMARK  144  A    between atoms: _342  and  _343
REMARK  145  A    between atoms: _342  and  _345
REMARK  146  A    between atoms: _345  and  _346
REMARK  147  A    between atoms: _346  and  _347
REMARK  148  A    between atoms: _352  and  _354
REMARK  149  A    between atoms: _354  and  _355
REMARK  150  A    between atoms: _354  and  _357
REMARK  151  A    between atoms: _357  and  _358
REMARK  152  A    between atoms: _364  and  _366
REMARK  153  A    between atoms: _366  and  _367
REMARK  154  A    between atoms: _366  and  _369
REMARK  155  A    between atoms: _371  and  _373
REMARK  156  A    between atoms: _373  and  _374
REMARK  157  A    between atoms: _373  and  _376
REMARK  158  A    between atoms: _376  and  _377
REMARK  159  A    between atoms: _377  and  _378
REMARK  160  A    between atoms: _380  and  _382
REMARK  161  A    between atoms: _382  and  _383
REMARK  162  A    between atoms: _382  and  _385
REMARK  163  A    between atoms: _385  and  _386
REMARK  164  A    between atoms: _391  and  _393
REMARK  165  A    between atoms: _393  and  _394
REMARK  166  A    between atoms: _393  and  _396
REMARK  167  A    between atoms: _396  and  _397
REMARK  168  A    between atoms: _400  and  _402
REMARK  169  A    between atoms: _402  and  _403
REMARK  170  A    between atoms: _402  and  _405
REMARK  171  A    between atoms: _405  and  _406
REMARK  172  A    between atoms: _408  and  _410
REMARK  173  A    between atoms: _410  and  _411
REMARK  174  A    between atoms: _410  and  _413
REMARK  175  A    between atoms: _413  and  _414
REMARK                            x       y       z     vdW  Elec       q    Type
REMARK                         _______ _______ _______ _____ _____    ______ ____
ROOT
ATOM      1 NA   UNL     1     -11.787 -31.050 -30.570  0.00  0.00    +0.000 Na
ATOM      2  O   UNL     1      -9.778 -32.014 -30.163  0.00  0.00    +0.000 OA
ENDROOT
TORSDOF 0
REMARK  Name = ../refined-set-2016/3t0d/3t0d_pocket.pdb
REMARK  175 active torsions:
REMARK  status: ('A' for Active; 'I' for Inactive)
REMARK    1  A    between atoms: _1  and  _3
REMARK    2  A    between atoms: _3  and  _4
REMARK    3  A    between atoms: _3  and  _6
REMARK    4  A    between atoms: _6  and  _7
REMARK    5  A    between atoms: _12  and  _13
REMARK    6  A    between atoms: _15  and  _17
REMARK    7  A    between atoms: _17  and  _18
REMARK    8  A    between atoms: _17  and  _20
REMARK    9  A    between atoms: _20  and  _21
REMARK   10  A    between atoms: _24  and  _26
REMARK   11  A    between atoms: _26  and  _27
REMARK   12  A    between atoms: _26  and  _29
REMARK   13  A    between atoms: _29  and  _30
REMARK   14  A    between atoms: _35  and  _37
REMARK   15  A    between atoms: _37  and  _38
REMARK   16  A    between atoms: _37  and  _40
REMARK   17  A    between atoms: _43  and  _45
REMARK   18  A    between atoms: _45  and  _46
REMARK   19  A    between atoms: _45  and  _48
REMARK   20  A    between atoms: _48  and  _49
REMARK   21  A    between atoms: _52  and  _54
REMARK   22  A    between atoms: _54  and  _55
REMARK   23  A    between atoms: _54  and  _57
REMARK   24  A    between atoms: _57  and  _58
REMARK   25  A    between atoms: _58  and  _59
REMARK   26  A    between atoms: _64  and  _66
REMARK   27  A    between atoms: _66  and  _67
REMARK   28  A    between atoms: _66  and  _69
REMARK   29  A    between atoms: _69  and  _70
REMARK   30  A    between atoms: _73  and  _75
REMARK   31  A    between atoms: _75  and  _76
REMARK   32  A    between atoms: _75  and  _78
REMARK   33  A    between atoms: _78  and  _79
REMARK   34  A    between atoms: _79  and  _80
REMARK   35  A    between atoms: _82  and  _84
REMARK   36  A    between atoms: _84  and  _85
REMARK   37  A    between atoms: _84  and  _87
REMARK   38  A    between atoms: _87  and  _88
REMARK   39  A    between atoms: _88  and  _89
REMARK   40  A    between atoms: _89  and  _90
REMARK   41  A    between atoms: _99  and  _101
REMARK   42  A    between atoms: _101  and  _102
REMARK   43  A    between atoms: _101  and  _104
REMARK   44  A    between atoms: _104  and  _105
REMARK   45  A    between atoms: _110  and  _112
REMARK   46  A    between atoms: _112  and  _113
REMARK   47  A    between atoms: _112  and  _115
REMARK   48  A    between atoms: _115  and  _116
REMARK   49  A    between atoms: _121  and  _123
REMARK   50  A    between atoms: _123  and  _124
REMARK   51  A    between atoms: _123  and  _126
REMARK   52  A    between atoms: _126  and  _127
REMARK   53  A    between atoms: _127  and  _128
REMARK   54  A    between atoms: _128  and  _129
REMARK   55  A    between atoms: _138  and  _140
REMARK   56  A    between atoms: _140  and  _141
REMARK   57  A    between atoms: _140  and  _143
REMARK   58  A    between atoms: _143  and  _144
REMARK   59  A    between atoms: _146  and  _148
REMARK   60  A    between atoms: _148  and  _149
REMARK   61  A    between atoms: _148  and  _151
REMARK   62  A    between atoms: _151  and  _152
REMARK   63  A    between atoms: _157  and  _159
REMARK   64  A    between atoms: _159  and  _160
REMARK   65  A    between atoms: _159  and  _162
REMARK   66  A    between atoms: _162  and  _163
REMARK   67  A    between atoms: _163  and  _164
REMARK   68  A    between atoms: _167  and  _169
REMARK   69  A    between atoms: _169  and  _170
REMARK   70  A    between atoms: _169  and  _172
REMARK   71  A    between atoms: _172  and  _173
REMARK   72  A    between atoms: _173  and  _174
REMARK   73  A    between atoms: _177  and  _179
REMARK   74  A    between atoms: _179  and  _180
REMARK   75  A    between atoms: _179  and  _182
REMARK   76  A    between atoms: _182  and  _183
REMARK   77  A    between atoms: _184  and  MG_424
REMARK   78  A    between atoms: _188  and  _190
REMARK   79  A    between atoms: _190  and  _191
REMARK   80  A    between atoms: _193  and  _195
REMARK   81  A    between atoms: _195  and  _196
REMARK   82  A    between atoms: _195  and  _198
REMARK   83  A    between atoms: _198  and  _199
REMARK   84  A    between atoms: _204  and  _206
REMARK   85  A    between atoms: _206  and  _207
REMARK   86  A    between atoms: _206  and  _209
REMARK   87  A    between atoms: _209  and  _210
REMARK   88  A    between atoms: _210  and  _211
REMARK   89  A    between atoms: _214  and  _216
REMARK   90  A    between atoms: _216  and  _217
REMARK   91  A    between atoms: _216  and  _219
REMARK   92  A    between atoms: _219  and  _220
REMARK   93  A    between atoms: _220  and  _221
REMARK   94  A    between atoms: _224  and  _226
REMARK   95  A    between atoms: _226  and  _227
REMARK   96  A    between atoms: _226  and  _229
REMARK   97  A    between atoms: _229  and  _230
REMARK   98  A    between atoms: _230  and  _231
REMARK   99  A    between atoms: _233  and  _235
REMARK  100  A    between atoms: _235  and  _236
REMARK  101  A    between atoms: _235  and  _238
REMARK  102  A    between atoms: _238  and  _239
REMARK  103  A    between atoms: _244  and  _245
REMARK  104  A    between atoms: _247  and  _249
REMARK  105  A    between atoms: _249  and  _250
REMARK  106  A    between atoms: _249  and  _252
REMARK  107  A    between atoms: _252  and  _253
REMARK  108  A    between atoms: _253  and  _254
REMARK  109  A    between atoms: _254  and  _255
REMARK  110  A    between atoms: _255  and  _256
REMARK  111  A    between atoms: _260  and  _262
REMARK  112  A    between atoms: _262  and  _263
REMARK  113  A    between atoms: _262  and  _265
REMARK  114  A    between atoms: _267  and  _269
REMARK  115  A    between atoms: _269  and  _270
REMARK  116  A    between atoms: _269  and  _272
REMARK  117  A    between atoms: _272  and  _273
REMARK  118  A    between atoms: _273  and  _274
REMARK  119  A    between atoms: _277  and  _279
REMARK  120  A    between atoms: _279  and  _280
REMARK  121  A    between atoms: _279  and  _282
REMARK  122  A    between atoms: _282  and  _283
REMARK  123  A    between atoms: _288  and  _290
REMARK  124  A    between atoms: _290  and  _291
REMARK  125  A    between atoms: _294  and  _296
REMARK  126  A    between atoms: _296  and  _297
REMARK  127  A    between atoms: _296  and  _299
REMARK  128  A    between atoms: _299  and  _300
REMARK  129  A    between atoms: _300  and  _301
REMARK  130  A    between atoms: _303  and  _305
REMARK  131  A    between atoms: _305  and  _306
REMARK  132  A    between atoms: _305  and  _308
REMARK  133  A    between atoms: _308  and  _309
REMARK  134  A    between atoms: _319  and  _321
REMARK  135  A    between atoms: _321  and  _322
REMARK  136  A    between atoms: _321  and  _324
REMARK  137  A    between atoms: _324  and  _325
REMARK  138  A    between atoms: _328  and  _330
REMARK  139  A    between atoms: _330  and  _331
REMARK  140  A    between atoms: _330  and  _333
REMARK  141  A    between atoms: _333  and  _334
REMARK  142  A    between atoms: _334  and  _335
REMARK  143  A    between atoms: _340  and  _342
REMARK  144  A    between atoms: _342  and  _343
REMARK  145  A    between atoms: _342  and  _345
REMARK  146  A    between atoms: _345  and  _346
REMARK  147  A    between atoms: _346  and  _347
REMARK  148  A    between atoms: _352  and  _354
REMARK  149  A    between atoms: _354  and  _355
REMARK  150  A    between atoms: _354  and  _357
REMARK  151  A    between atoms: _357  and  _358
REMARK  152  A    between atoms: _364  and  _366
REMARK  153  A    between atoms: _366  and  _367
REMARK  154  A    between atoms: _366  and  _369
REMARK  155  A    between atoms: _371  and  _373
REMARK  156  A    between atoms: _373  and  _374
REMARK  157  A    between atoms: _373  and  _376
REMARK  158  A    between atoms: _376  and  _377
REMARK  159  A    between atoms: _377  and  _378
REMARK  160  A    between atoms: _380  and  _382
REMARK  161  A    between atoms: _382  and  _383
REMARK  162  A    between atoms: _382  and  _385
REMARK  163  A    between atoms: _385  and  _386
REMARK  164  A    between atoms: _391  and  _393
REMARK  165  A    between atoms: _393  and  _394
REMARK  166  A    between atoms: _393  and  _396
REMARK  167  A    between atoms: _396  and  _397
REMARK  168  A    between atoms: _400  and  _402
REMARK  169  A    between atoms: _402  and  _403
REMARK  170  A    between atoms: _402  and  _405
REMARK  171  A    between atoms: _405  and  _406
REMARK  172  A    between atoms: _408  and  _410
REMARK  173  A    between atoms: _410  and  _411
REMARK  174  A    between atoms: _410  and  _413
REMARK  175  A    between atoms: _413  and  _414
REMARK                            x       y       z     vdW  Elec       q    Type
REMARK                         _______ _______ _______ _____ _____    ______ ____
ROOT
ATOM      1  O   HOH     1      -5.894 -24.556 -18.443  0.00  0.00    +0.000 OA
ENDROOT
TORSDOF 0
REMARK  Name = ../refined-set-2016/3t0d/3t0d_pocket.pdb
REMARK  175 active torsions:
REMARK  status: ('A' for Active; 'I' for Inactive)
REMARK    1  A    between atoms: _1  and  _3
REMARK    2  A    between atoms: _3  and  _4
REMARK    3  A    between atoms: _3  and  _6
REMARK    4  A    between atoms: _6  and  _7
REMARK    5  A    between atoms: _12  and  _13
REMARK    6  A    between atoms: _15  and  _17
REMARK    7  A    between atoms: _17  and  _18
REMARK    8  A    between atoms: _17  and  _20
REMARK    9  A    between atoms: _20  and  _21
REMARK   10  A    between atoms: _24  and  _26
REMARK   11  A    between atoms: _26  and  _27
REMARK   12  A    between atoms: _26  and  _29
REMARK   13  A    between atoms: _29  and  _30
REMARK   14  A    between atoms: _35  and  _37
REMARK   15  A    between atoms: _37  and  _38
REMARK   16  A    between atoms: _37  and  _40
REMARK   17  A    between atoms: _43  and  _45
REMARK   18  A    between atoms: _45  and  _46
REMARK   19  A    between atoms: _45  and  _48
REMARK   20  A    between atoms: _48  and  _49
REMARK   21  A    between atoms: _52  and  _54
REMARK   22  A    between atoms: _54  and  _55
REMARK   23  A    between atoms: _54  and  _57
REMARK   24  A    between atoms: _57  and  _58
REMARK   25  A    between atoms: _58  and  _59
REMARK   26  A    between atoms: _64  and  _66
REMARK   27  A    between atoms: _66  and  _67
REMARK   28  A    between atoms: _66  and  _69
REMARK   29  A    between atoms: _69  and  _70
REMARK   30  A    between atoms: _73  and  _75
REMARK   31  A    between atoms: _75  and  _76
REMARK   32  A    between atoms: _75  and  _78
REMARK   33  A    between atoms: _78  and  _79
REMARK   34  A    between atoms: _79  and  _80
REMARK   35  A    between atoms: _82  and  _84
REMARK   36  A    between atoms: _84  and  _85
REMARK   37  A    between atoms: _84  and  _87
REMARK   38  A    between atoms: _87  and  _88
REMARK   39  A    between atoms: _88  and  _89
REMARK   40  A    between atoms: _89  and  _90
REMARK   41  A    between atoms: _99  and  _101
REMARK   42  A    between atoms: _101  and  _102
REMARK   43  A    between atoms: _101  and  _104
REMARK   44  A    between atoms: _104  and  _105
REMARK   45  A    between atoms: _110  and  _112
REMARK   46  A    between atoms: _112  and  _113
REMARK   47  A    between atoms: _112  and  _115
REMARK   48  A    between atoms: _115  and  _116
REMARK   49  A    between atoms: _121  and  _123
REMARK   50  A    between atoms: _123  and  _124
REMARK   51  A    between atoms: _123  and  _126
REMARK   52  A    between atoms: _126  and  _127
REMARK   53  A    between atoms: _127  and  _128
REMARK   54  A    between atoms: _128  and  _129
REMARK   55  A    between atoms: _138  and  _140
REMARK   56  A    between atoms: _140  and  _141
REMARK   57  A    between atoms: _140  and  _143
REMARK   58  A    between atoms: _143  and  _144
REMARK   59  A    between atoms: _146  and  _148
REMARK   60  A    between atoms: _148  and  _149
REMARK   61  A    between atoms: _148  and  _151
REMARK   62  A    between atoms: _151  and  _152
REMARK   63  A    between atoms: _157  and  _159
REMARK   64  A    between atoms: _159  and  _160
REMARK   65  A    between atoms: _159  and  _162
REMARK   66  A    between atoms: _162  and  _163
REMARK   67  A    between atoms: _163  and  _164
REMARK   68  A    between atoms: _167  and  _169
REMARK   69  A    between atoms: _169  and  _170
REMARK   70  A    between atoms: _169  and  _172
REMARK   71  A    between atoms: _172  and  _173
REMARK   72  A    between atoms: _173  and  _174
REMARK   73  A    between atoms: _177  and  _179
REMARK   74  A    between atoms: _179  and  _180
REMARK   75  A    between atoms: _179  and  _182
REMARK   76  A    between atoms: _182  and  _183
REMARK   77  A    between atoms: _184  and  MG_424
REMARK   78  A    between atoms: _188  and  _190
REMARK   79  A    between atoms: _190  and  _191
REMARK   80  A    between atoms: _193  and  _195
REMARK   81  A    between atoms: _195  and  _196
REMARK   82  A    between atoms: _195  and  _198
REMARK   83  A    between atoms: _198  and  _199
REMARK   84  A    between atoms: _204  and  _206
REMARK   85  A    between atoms: _206  and  _207
REMARK   86  A    between atoms: _206  and  _209
REMARK   87  A    between atoms: _209  and  _210
REMARK   88  A    between atoms: _210  and  _211
REMARK   89  A    between atoms: _214  and  _216
REMARK   90  A    between atoms: _216  and  _217
REMARK   91  A    between atoms: _216  and  _219
REMARK   92  A    between atoms: _219  and  _220
REMARK   93  A    between atoms: _220  and  _221
REMARK   94  A    between atoms: _224  and  _226
REMARK   95  A    between atoms: _226  and  _227
REMARK   96  A    between atoms: _226  and  _229
REMARK   97  A    between atoms: _229  and  _230
REMARK   98  A    between atoms: _230  and  _231
REMARK   99  A    between atoms: _233  and  _235
REMARK  100  A    between atoms: _235  and  _236
REMARK  101  A    between atoms: _235  and  _238
REMARK  102  A    between atoms: _238  and  _239
REMARK  103  A    between atoms: _244  and  _245
REMARK  104  A    between atoms: _247  and  _249
REMARK  105  A    between atoms: _249  and  _250
REMARK  106  A    between atoms: _249  and  _252
REMARK  107  A    between atoms: _252  and  _253
REMARK  108  A    between atoms: _253  and  _254
REMARK  109  A    between atoms: _254  and  _255
REMARK  110  A    between atoms: _255  and  _256
REMARK  111  A    between atoms: _260  and  _262
REMARK  112  A    between atoms: _262  and  _263
REMARK  113  A    between atoms: _262  and  _265
REMARK  114  A    between atoms: _267  and  _269
REMARK  115  A    between atoms: _269  and  _270
REMARK  116  A    between atoms: _269  and  _272
REMARK  117  A    between atoms: _272  and  _273
REMARK  118  A    between atoms: _273  and  _274
REMARK  119  A    between atoms: _277  and  _279
REMARK  120  A    between atoms: _279  and  _280
REMARK  121  A    between atoms: _279  and  _282
REMARK  122  A    between atoms: _282  and  _283
REMARK  123  A    between atoms: _288  and  _290
REMARK  124  A    between atoms: _290  and  _291
REMARK  125  A    between atoms: _294  and  _296
REMARK  126  A    between atoms: _296  and  _297
REMARK  127  A    between atoms: _296  and  _299
REMARK  128  A    between atoms: _299  and  _300
REMARK  129  A    between atoms: _300  and  _301
REMARK  130  A    between atoms: _303  and  _305
REMARK  131  A    between atoms: _305  and  _306
REMARK  132  A    between atoms: _305  and  _308
REMARK  133  A    between atoms: _308  and  _309
REMARK  134  A    between atoms: _319  and  _321
REMARK  135  A    between atoms: _321  and  _322
REMARK  136  A    between atoms: _321  and  _324
REMARK  137  A    between atoms: _324  and  _325
REMARK  138  A    between atoms: _328  and  _330
REMARK  139  A    between atoms: _330  and  _331
REMARK  140  A    between atoms: _330  and  _333
REMARK  141  A    between atoms: _333  and  _334
REMARK  142  A    between atoms: _334  and  _335
REMARK  143  A    between atoms: _340  and  _342
REMARK  144  A    between atoms: _342  and  _343
REMARK  145  A    between atoms: _342  and  _345
REMARK  146  A    between atoms: _345  and  _346
REMARK  147  A    between atoms: _346  and  _347
REMARK  148  A    between atoms: _352  and  _354
REMARK  149  A    between atoms: _354  and  _355
REMARK  150  A    between atoms: _354  and  _357
REMARK  151  A    between atoms: _357  and  _358
REMARK  152  A    between atoms: _364  and  _366
REMARK  153  A    between atoms: _366  and  _367
REMARK  154  A    between atoms: _366  and  _369
REMARK  155  A    between atoms: _371  and  _373
REMARK  156  A    between atoms: _373  and  _374
REMARK  157  A    between atoms: _373  and  _376
REMARK  158  A    between atoms: _376  and  _377
REMARK  159  A    between atoms: _377  and  _378
REMARK  160  A    between atoms: _380  and  _382
REMARK  161  A    between atoms: _382  and  _383
REMARK  162  A    between atoms: _382  and  _385
REMARK  163  A    between atoms: _385  and  _386
REMARK  164  A    between atoms: _391  and  _393
REMARK  165  A    between atoms: _393  and  _394
REMARK  166  A    between atoms: _393  and  _396
REMARK  167  A    between atoms: _396  and  _397
REMARK  168  A    between atoms: _400  and  _402
REMARK  169  A    between atoms: _402  and  _403
REMARK  170  A    between atoms: _402  and  _405
REMARK  171  A    between atoms: _405  and  _406
REMARK  172  A    between atoms: _408  and  _410
REMARK  173  A    between atoms: _410  and  _411
REMARK  174  A    between atoms: _410  and  _413
REMARK  175  A    between atoms: _413  and  _414
REMARK                            x       y       z     vdW  Elec       q    Type
REMARK                         _______ _______ _______ _____ _____    ______ ____
ROOT
ATOM      1  O   HOH     1     -10.204 -31.270 -23.683  0.00  0.00    +0.000 OA
ENDROOT
TORSDOF 0
REMARK  Name = ../refined-set-2016/3t0d/3t0d_pocket.pdb
REMARK  175 active torsions:
REMARK  status: ('A' for Active; 'I' for Inactive)
REMARK    1  A    between atoms: _1  and  _3
REMARK    2  A    between atoms: _3  and  _4
REMARK    3  A    between atoms: _3  and  _6
REMARK    4  A    between atoms: _6  and  _7
REMARK    5  A    between atoms: _12  and  _13
REMARK    6  A    between atoms: _15  and  _17
REMARK    7  A    between atoms: _17  and  _18
REMARK    8  A    between atoms: _17  and  _20
REMARK    9  A    between atoms: _20  and  _21
REMARK   10  A    between atoms: _24  and  _26
REMARK   11  A    between atoms: _26  and  _27
REMARK   12  A    between atoms: _26  and  _29
REMARK   13  A    between atoms: _29  and  _30
REMARK   14  A    between atoms: _35  and  _37
REMARK   15  A    between atoms: _37  and  _38
REMARK   16  A    between atoms: _37  and  _40
REMARK   17  A    between atoms: _43  and  _45
REMARK   18  A    between atoms: _45  and  _46
REMARK   19  A    between atoms: _45  and  _48
REMARK   20  A    between atoms: _48  and  _49
REMARK   21  A    between atoms: _52  and  _54
REMARK   22  A    between atoms: _54  and  _55
REMARK   23  A    between atoms: _54  and  _57
REMARK   24  A    between atoms: _57  and  _58
REMARK   25  A    between atoms: _58  and  _59
REMARK   26  A    between atoms: _64  and  _66
REMARK   27  A    between atoms: _66  and  _67
REMARK   28  A    between atoms: _66  and  _69
REMARK   29  A    between atoms: _69  and  _70
REMARK   30  A    between atoms: _73  and  _75
REMARK   31  A    between atoms: _75  and  _76
REMARK   32  A    between atoms: _75  and  _78
REMARK   33  A    between atoms: _78  and  _79
REMARK   34  A    between atoms: _79  and  _80
REMARK   35  A    between atoms: _82  and  _84
REMARK   36  A    between atoms: _84  and  _85
REMARK   37  A    between atoms: _84  and  _87
REMARK   38  A    between atoms: _87  and  _88
REMARK   39  A    between atoms: _88  and  _89
REMARK   40  A    between atoms: _89  and  _90
REMARK   41  A    between atoms: _99  and  _101
REMARK   42  A    between atoms: _101  and  _102
REMARK   43  A    between atoms: _101  and  _104
REMARK   44  A    between atoms: _104  and  _105
REMARK   45  A    between atoms: _110  and  _112
REMARK   46  A    between atoms: _112  and  _113
REMARK   47  A    between atoms: _112  and  _115
REMARK   48  A    between atoms: _115  and  _116
REMARK   49  A    between atoms: _121  and  _123
REMARK   50  A    between atoms: _123  and  _124
REMARK   51  A    between atoms: _123  and  _126
REMARK   52  A    between atoms: _126  and  _127
REMARK   53  A    between atoms: _127  and  _128
REMARK   54  A    between atoms: _128  and  _129
REMARK   55  A    between atoms: _138  and  _140
REMARK   56  A    between atoms: _140  and  _141
REMARK   57  A    between atoms: _140  and  _143
REMARK   58  A    between atoms: _143  and  _144
REMARK   59  A    between atoms: _146  and  _148
REMARK   60  A    between atoms: _148  and  _149
REMARK   61  A    between atoms: _148  and  _151
REMARK   62  A    between atoms: _151  and  _152
REMARK   63  A    between atoms: _157  and  _159
REMARK   64  A    between atoms: _159  and  _160
REMARK   65  A    between atoms: _159  and  _162
REMARK   66  A    between atoms: _162  and  _163
REMARK   67  A    between atoms: _163  and  _164
REMARK   68  A    between atoms: _167  and  _169
REMARK   69  A    between atoms: _169  and  _170
REMARK   70  A    between atoms: _169  and  _172
REMARK   71  A    between atoms: _172  and  _173
REMARK   72  A    between atoms: _173  and  _174
REMARK   73  A    between atoms: _177  and  _179
REMARK   74  A    between atoms: _179  and  _180
REMARK   75  A    between atoms: _179  and  _182
REMARK   76  A    between atoms: _182  and  _183
REMARK   77  A    between atoms: _184  and  MG_424
REMARK   78  A    between atoms: _188  and  _190
REMARK   79  A    between atoms: _190  and  _191
REMARK   80  A    between atoms: _193  and  _195
REMARK   81  A    between atoms: _195  and  _196
REMARK   82  A    between atoms: _195  and  _198
REMARK   83  A    between atoms: _198  and  _199
REMARK   84  A    between atoms: _204  and  _206
REMARK   85  A    between atoms: _206  and  _207
REMARK   86  A    between atoms: _206  and  _209
REMARK   87  A    between atoms: _209  and  _210
REMARK   88  A    between atoms: _210  and  _211
REMARK   89  A    between atoms: _214  and  _216
REMARK   90  A    between atoms: _216  and  _217
REMARK   91  A    between atoms: _216  and  _219
REMARK   92  A    between atoms: _219  and  _220
REMARK   93  A    between atoms: _220  and  _221
REMARK   94  A    between atoms: _224  and  _226
REMARK   95  A    between atoms: _226  and  _227
REMARK   96  A    between atoms: _226  and  _229
REMARK   97  A    between atoms: _229  and  _230
REMARK   98  A    between atoms: _230  and  _231
REMARK   99  A    between atoms: _233  and  _235
REMARK  100  A    between atoms: _235  and  _236
REMARK  101  A    between atoms: _235  and  _238
REMARK  102  A    between atoms: _238  and  _239
REMARK  103  A    between atoms: _244  and  _245
REMARK  104  A    between atoms: _247  and  _249
REMARK  105  A    between atoms: _249  and  _250
REMARK  106  A    between atoms: _249  and  _252
REMARK  107  A    between atoms: _252  and  _253
REMARK  108  A    between atoms: _253  and  _254
REMARK  109  A    between atoms: _254  and  _255
REMARK  110  A    between atoms: _255  and  _256
REMARK  111  A    between atoms: _260  and  _262
REMARK  112  A    between atoms: _262  and  _263
REMARK  113  A    between atoms: _262  and  _265
REMARK  114  A    between atoms: _267  and  _269
REMARK  115  A    between atoms: _269  and  _270
REMARK  116  A    between atoms: _269  and  _272
REMARK  117  A    between atoms: _272  and  _273
REMARK  118  A    between atoms: _273  and  _274
REMARK  119  A    between atoms: _277  and  _279
REMARK  120  A    between atoms: _279  and  _280
REMARK  121  A    between atoms: _279  and  _282
REMARK  122  A    between atoms: _282  and  _283
REMARK  123  A    between atoms: _288  and  _290
REMARK  124  A    between atoms: _290  and  _291
REMARK  125  A    between atoms: _294  and  _296
REMARK  126  A    between atoms: _296  and  _297
REMARK  127  A    between atoms: _296  and  _299
REMARK  128  A    between atoms: _299  and  _300
REMARK  129  A    between atoms: _300  and  _301
REMARK  130  A    between atoms: _303  and  _305
REMARK  131  A    between atoms: _305  and  _306
REMARK  132  A    between atoms: _305  and  _308
REMARK  133  A    between atoms: _308  and  _309
REMARK  134  A    between atoms: _319  and  _321
REMARK  135  A    between atoms: _321  and  _322
REMARK  136  A    between atoms: _321  and  _324
REMARK  137  A    between atoms: _324  and  _325
REMARK  138  A    between atoms: _328  and  _330
REMARK  139  A    between atoms: _330  and  _331
REMARK  140  A    between atoms: _330  and  _333
REMARK  141  A    between atoms: _333  and  _334
REMARK  142  A    between atoms: _334  and  _335
REMARK  143  A    between atoms: _340  and  _342
REMARK  144  A    between atoms: _342  and  _343
REMARK  145  A    between atoms: _342  and  _345
REMARK  146  A    between atoms: _345  and  _346
REMARK  147  A    between atoms: _346  and  _347
REMARK  148  A    between atoms: _352  and  _354
REMARK  149  A    between atoms: _354  and  _355
REMARK  150  A    between atoms: _354  and  _357
REMARK  151  A    between atoms: _357  and  _358
REMARK  152  A    between atoms: _364  and  _366
REMARK  153  A    between atoms: _366  and  _367
REMARK  154  A    between atoms: _366  and  _369
REMARK  155  A    between atoms: _371  and  _373
REMARK  156  A    between atoms: _373  and  _374
REMARK  157  A    between atoms: _373  and  _376
REMARK  158  A    between atoms: _376  and  _377
REMARK  159  A    between atoms: _377  and  _378
REMARK  160  A    between atoms: _380  and  _382
REMARK  161  A    between atoms: _382  and  _383
REMARK  162  A    between atoms: _382  and  _385
REMARK  163  A    between atoms: _385  and  _386
REMARK  164  A    between atoms: _391  and  _393
REMARK  165  A    between atoms: _393  and  _394
REMARK  166  A    between atoms: _393  and  _396
REMARK  167  A    between atoms: _396  and  _397
REMARK  168  A    between atoms: _400  and  _402
REMARK  169  A    between atoms: _402  and  _403
REMARK  170  A    between atoms: _402  and  _405
REMARK  171  A    between atoms: _405  and  _406
REMARK  172  A    between atoms: _408  and  _410
REMARK  173  A    between atoms: _410  and  _411
REMARK  174  A    between atoms: _410  and  _413
REMARK  175  A    between atoms: _413  and  _414
REMARK                            x       y       z     vdW  Elec       q    Type
REMARK                         _______ _______ _______ _____ _____    ______ ____
ROOT
ATOM      1  O   HOH     1      -7.690 -32.061 -26.550  0.00  0.00    +0.000 OA
ENDROOT
TORSDOF 0
REMARK  Name = ../refined-set-2016/3t0d/3t0d_pocket.pdb
REMARK  175 active torsions:
REMARK  status: ('A' for Active; 'I' for Inactive)
REMARK    1  A    between atoms: _1  and  _3
REMARK    2  A    between atoms: _3  and  _4
REMARK    3  A    between atoms: _3  and  _6
REMARK    4  A    between atoms: _6  and  _7
REMARK    5  A    between atoms: _12  and  _13
REMARK    6  A    between atoms: _15  and  _17
REMARK    7  A    between atoms: _17  and  _18
REMARK    8  A    between atoms: _17  and  _20
REMARK    9  A    between atoms: _20  and  _21
REMARK   10  A    between atoms: _24  and  _26
REMARK   11  A    between atoms: _26  and  _27
REMARK   12  A    between atoms: _26  and  _29
REMARK   13  A    between atoms: _29  and  _30
REMARK   14  A    between atoms: _35  and  _37
REMARK   15  A    between atoms: _37  and  _38
REMARK   16  A    between atoms: _37  and  _40
REMARK   17  A    between atoms: _43  and  _45
REMARK   18  A    between atoms: _45  and  _46
REMARK   19  A    between atoms: _45  and  _48
REMARK   20  A    between atoms: _48  and  _49
REMARK   21  A    between atoms: _52  and  _54
REMARK   22  A    between atoms: _54  and  _55
REMARK   23  A    between atoms: _54  and  _57
REMARK   24  A    between atoms: _57  and  _58
REMARK   25  A    between atoms: _58  and  _59
REMARK   26  A    between atoms: _64  and  _66
REMARK   27  A    between atoms: _66  and  _67
REMARK   28  A    between atoms: _66  and  _69
REMARK   29  A    between atoms: _69  and  _70
REMARK   30  A    between atoms: _73  and  _75
REMARK   31  A    between atoms: _75  and  _76
REMARK   32  A    between atoms: _75  and  _78
REMARK   33  A    between atoms: _78  and  _79
REMARK   34  A    between atoms: _79  and  _80
REMARK   35  A    between atoms: _82  and  _84
REMARK   36  A    between atoms: _84  and  _85
REMARK   37  A    between atoms: _84  and  _87
REMARK   38  A    between atoms: _87  and  _88
REMARK   39  A    between atoms: _88  and  _89
REMARK   40  A    between atoms: _89  and  _90
REMARK   41  A    between atoms: _99  and  _101
REMARK   42  A    between atoms: _101  and  _102
REMARK   43  A    between atoms: _101  and  _104
REMARK   44  A    between atoms: _104  and  _105
REMARK   45  A    between atoms: _110  and  _112
REMARK   46  A    between atoms: _112  and  _113
REMARK   47  A    between atoms: _112  and  _115
REMARK   48  A    between atoms: _115  and  _116
REMARK   49  A    between atoms: _121  and  _123
REMARK   50  A    between atoms: _123  and  _124
REMARK   51  A    between atoms: _123  and  _126
REMARK   52  A    between atoms: _126  and  _127
REMARK   53  A    between atoms: _127  and  _128
REMARK   54  A    between atoms: _128  and  _129
REMARK   55  A    between atoms: _138  and  _140
REMARK   56  A    between atoms: _140  and  _141
REMARK   57  A    between atoms: _140  and  _143
REMARK   58  A    between atoms: _143  and  _144
REMARK   59  A    between atoms: _146  and  _148
REMARK   60  A    between atoms: _148  and  _149
REMARK   61  A    between atoms: _148  and  _151
REMARK   62  A    between atoms: _151  and  _152
REMARK   63  A    between atoms: _157  and  _159
REMARK   64  A    between atoms: _159  and  _160
REMARK   65  A    between atoms: _159  and  _162
REMARK   66  A    between atoms: _162  and  _163
REMARK   67  A    between atoms: _163  and  _164
REMARK   68  A    between atoms: _167  and  _169
REMARK   69  A    between atoms: _169  and  _170
REMARK   70  A    between atoms: _169  and  _172
REMARK   71  A    between atoms: _172  and  _173
REMARK   72  A    between atoms: _173  and  _174
REMARK   73  A    between atoms: _177  and  _179
REMARK   74  A    between atoms: _179  and  _180
REMARK   75  A    between atoms: _179  and  _182
REMARK   76  A    between atoms: _182  and  _183
REMARK   77  A    between atoms: _184  and  MG_424
REMARK   78  A    between atoms: _188  and  _190
REMARK   79  A    between atoms: _190  and  _191
REMARK   80  A    between atoms: _193  and  _195
REMARK   81  A    between atoms: _195  and  _196
REMARK   82  A    between atoms: _195  and  _198
REMARK   83  A    between atoms: _198  and  _199
REMARK   84  A    between atoms: _204  and  _206
REMARK   85  A    between atoms: _206  and  _207
REMARK   86  A    between atoms: _206  and  _209
REMARK   87  A    between atoms: _209  and  _210
REMARK   88  A    between atoms: _210  and  _211
REMARK   89  A    between atoms: _214  and  _216
REMARK   90  A    between atoms: _216  and  _217
REMARK   91  A    between atoms: _216  and  _219
REMARK   92  A    between atoms: _219  and  _220
REMARK   93  A    between atoms: _220  and  _221
REMARK   94  A    between atoms: _224  and  _226
REMARK   95  A    between atoms: _226  and  _227
REMARK   96  A    between atoms: _226  and  _229
REMARK   97  A    between atoms: _229  and  _230
REMARK   98  A    between atoms: _230  and  _231
REMARK   99  A    between atoms: _233  and  _235
REMARK  100  A    between atoms: _235  and  _236
REMARK  101  A    between atoms: _235  and  _238
REMARK  102  A    between atoms: _238  and  _239
REMARK  103  A    between atoms: _244  and  _245
REMARK  104  A    between atoms: _247  and  _249
REMARK  105  A    between atoms: _249  and  _250
REMARK  106  A    between atoms: _249  and  _252
REMARK  107  A    between atoms: _252  and  _253
REMARK  108  A    between atoms: _253  and  _254
REMARK  109  A    between atoms: _254  and  _255
REMARK  110  A    between atoms: _255  and  _256
REMARK  111  A    between atoms: _260  and  _262
REMARK  112  A    between atoms: _262  and  _263
REMARK  113  A    between atoms: _262  and  _265
REMARK  114  A    between atoms: _267  and  _269
REMARK  115  A    between atoms: _269  and  _270
REMARK  116  A    between atoms: _269  and  _272
REMARK  117  A    between atoms: _272  and  _273
REMARK  118  A    between atoms: _273  and  _274
REMARK  119  A    between atoms: _277  and  _279
REMARK  120  A    between atoms: _279  and  _280
REMARK  121  A    between atoms: _279  and  _282
REMARK  122  A    between atoms: _282  and  _283
REMARK  123  A    between atoms: _288  and  _290
REMARK  124  A    between atoms: _290  and  _291
REMARK  125  A    between atoms: _294  and  _296
REMARK  126  A    between atoms: _296  and  _297
REMARK  127  A    between atoms: _296  and  _299
REMARK  128  A    between atoms: _299  and  _300
REMARK  129  A    between atoms: _300  and  _301
REMARK  130  A    between atoms: _303  and  _305
REMARK  131  A    between atoms: _305  and  _306
REMARK  132  A    between atoms: _305  and  _308
REMARK  133  A    between atoms: _308  and  _309
REMARK  134  A    between atoms: _319  and  _321
REMARK  135  A    between atoms: _321  and  _322
REMARK  136  A    between atoms: _321  and  _324
REMARK  137  A    between atoms: _324  and  _325
REMARK  138  A    between atoms: _328  and  _330
REMARK  139  A    between atoms: _330  and  _331
REMARK  140  A    between atoms: _330  and  _333
REMARK  141  A    between atoms: _333  and  _334
REMARK  142  A    between atoms: _334  and  _335
REMARK  143  A    between atoms: _340  and  _342
REMARK  144  A    between atoms: _342  and  _343
REMARK  145  A    between atoms: _342  and  _345
REMARK  146  A    between atoms: _345  and  _346
REMARK  147  A    between atoms: _346  and  _347
REMARK  148  A    between atoms: _352  and  _354
REMARK  149  A    between atoms: _354  and  _355
REMARK  150  A    between atoms: _354  and  _357
REMARK  151  A    between atoms: _357  and  _358
REMARK  152  A    between atoms: _364  and  _366
REMARK  153  A    between atoms: _366  and  _367
REMARK  154  A    between atoms: _366  and  _369
REMARK  155  A    between atoms: _371  and  _373
REMARK  156  A    between atoms: _373  and  _374
REMARK  157  A    between atoms: _373  and  _376
REMARK  158  A    between atoms: _376  and  _377
REMARK  159  A    between atoms: _377  and  _378
REMARK  160  A    between atoms: _380  and  _382
REMARK  161  A    between atoms: _382  and  _383
REMARK  162  A    between atoms: _382  and  _385
REMARK  163  A    between atoms: _385  and  _386
REMARK  164  A    between atoms: _391  and  _393
REMARK  165  A    between atoms: _393  and  _394
REMARK  166  A    between atoms: _393  and  _396
REMARK  167  A    between atoms: _396  and  _397
REMARK  168  A    between atoms: _400  and  _402
REMARK  169  A    between atoms: _402  and  _403
REMARK  170  A    between atoms: _402  and  _405
REMARK  171  A    between atoms: _405  and  _406
REMARK  172  A    between atoms: _408  and  _410
REMARK  173  A    between atoms: _410  and  _411
REMARK  174  A    between atoms: _410  and  _413
REMARK  175  A    between atoms: _413  and  _414
REMARK                            x       y       z     vdW  Elec       q    Type
REMARK                         _______ _______ _______ _____ _____    ______ ____
ROOT
ATOM      1  O   HOH     1      -7.256 -31.088 -34.540  0.00  0.00    +0.000 OA
ENDROOT
TORSDOF 0
REMARK  Name = ../refined-set-2016/3t0d/3t0d_pocket.pdb
REMARK  175 active torsions:
REMARK  status: ('A' for Active; 'I' for Inactive)
REMARK    1  A    between atoms: _1  and  _3
REMARK    2  A    between atoms: _3  and  _4
REMARK    3  A    between atoms: _3  and  _6
REMARK    4  A    between atoms: _6  and  _7
REMARK    5  A    between atoms: _12  and  _13
REMARK    6  A    between atoms: _15  and  _17
REMARK    7  A    between atoms: _17  and  _18
REMARK    8  A    between atoms: _17  and  _20
REMARK    9  A    between atoms: _20  and  _21
REMARK   10  A    between atoms: _24  and  _26
REMARK   11  A    between atoms: _26  and  _27
REMARK   12  A    between atoms: _26  and  _29
REMARK   13  A    between atoms: _29  and  _30
REMARK   14  A    between atoms: _35  and  _37
REMARK   15  A    between atoms: _37  and  _38
REMARK   16  A    between atoms: _37  and  _40
REMARK   17  A    between atoms: _43  and  _45
REMARK   18  A    between atoms: _45  and  _46
REMARK   19  A    between atoms: _45  and  _48
REMARK   20  A    between atoms: _48  and  _49
REMARK   21  A    between atoms: _52  and  _54
REMARK   22  A    between atoms: _54  and  _55
REMARK   23  A    between atoms: _54  and  _57
REMARK   24  A    between atoms: _57  and  _58
REMARK   25  A    between atoms: _58  and  _59
REMARK   26  A    between atoms: _64  and  _66
REMARK   27  A    between atoms: _66  and  _67
REMARK   28  A    between atoms: _66  and  _69
REMARK   29  A    between atoms: _69  and  _70
REMARK   30  A    between atoms: _73  and  _75
REMARK   31  A    between atoms: _75  and  _76
REMARK   32  A    between atoms: _75  and  _78
REMARK   33  A    between atoms: _78  and  _79
REMARK   34  A    between atoms: _79  and  _80
REMARK   35  A    between atoms: _82  and  _84
REMARK   36  A    between atoms: _84  and  _85
REMARK   37  A    between atoms: _84  and  _87
REMARK   38  A    between atoms: _87  and  _88
REMARK   39  A    between atoms: _88  and  _89
REMARK   40  A    between atoms: _89  and  _90
REMARK   41  A    between atoms: _99  and  _101
REMARK   42  A    between atoms: _101  and  _102
REMARK   43  A    between atoms: _101  and  _104
REMARK   44  A    between atoms: _104  and  _105
REMARK   45  A    between atoms: _110  and  _112
REMARK   46  A    between atoms: _112  and  _113
REMARK   47  A    between atoms: _112  and  _115
REMARK   48  A    between atoms: _115  and  _116
REMARK   49  A    between atoms: _121  and  _123
REMARK   50  A    between atoms: _123  and  _124
REMARK   51  A    between atoms: _123  and  _126
REMARK   52  A    between atoms: _126  and  _127
REMARK   53  A    between atoms: _127  and  _128
REMARK   54  A    between atoms: _128  and  _129
REMARK   55  A    between atoms: _138  and  _140
REMARK   56  A    between atoms: _140  and  _141
REMARK   57  A    between atoms: _140  and  _143
REMARK   58  A    between atoms: _143  and  _144
REMARK   59  A    between atoms: _146  and  _148
REMARK   60  A    between atoms: _148  and  _149
REMARK   61  A    between atoms: _148  and  _151
REMARK   62  A    between atoms: _151  and  _152
REMARK   63  A    between atoms: _157  and  _159
REMARK   64  A    between atoms: _159  and  _160
REMARK   65  A    between atoms: _159  and  _162
REMARK   66  A    between atoms: _162  and  _163
REMARK   67  A    between atoms: _163  and  _164
REMARK   68  A    between atoms: _167  and  _169
REMARK   69  A    between atoms: _169  and  _170
REMARK   70  A    between atoms: _169  and  _172
REMARK   71  A    between atoms: _172  and  _173
REMARK   72  A    between atoms: _173  and  _174
REMARK   73  A    between atoms: _177  and  _179
REMARK   74  A    between atoms: _179  and  _180
REMARK   75  A    between atoms: _179  and  _182
REMARK   76  A    between atoms: _182  and  _183
REMARK   77  A    between atoms: _184  and  MG_424
REMARK   78  A    between atoms: _188  and  _190
REMARK   79  A    between atoms: _190  and  _191
REMARK   80  A    between atoms: _193  and  _195
REMARK   81  A    between atoms: _195  and  _196
REMARK   82  A    between atoms: _195  and  _198
REMARK   83  A    between atoms: _198  and  _199
REMARK   84  A    between atoms: _204  and  _206
REMARK   85  A    between atoms: _206  and  _207
REMARK   86  A    between atoms: _206  and  _209
REMARK   87  A    between atoms: _209  and  _210
REMARK   88  A    between atoms: _210  and  _211
REMARK   89  A    between atoms: _214  and  _216
REMARK   90  A    between atoms: _216  and  _217
REMARK   91  A    between atoms: _216  and  _219
REMARK   92  A    between atoms: _219  and  _220
REMARK   93  A    between atoms: _220  and  _221
REMARK   94  A    between atoms: _224  and  _226
REMARK   95  A    between atoms: _226  and  _227
REMARK   96  A    between atoms: _226  and  _229
REMARK   97  A    between atoms: _229  and  _230
REMARK   98  A    between atoms: _230  and  _231
REMARK   99  A    between atoms: _233  and  _235
REMARK  100  A    between atoms: _235  and  _236
REMARK  101  A    between atoms: _235  and  _238
REMARK  102  A    between atoms: _238  and  _239
REMARK  103  A    between atoms: _244  and  _245
REMARK  104  A    between atoms: _247  and  _249
REMARK  105  A    between atoms: _249  and  _250
REMARK  106  A    between atoms: _249  and  _252
REMARK  107  A    between atoms: _252  and  _253
REMARK  108  A    between atoms: _253  and  _254
REMARK  109  A    between atoms: _254  and  _255
REMARK  110  A    between atoms: _255  and  _256
REMARK  111  A    between atoms: _260  and  _262
REMARK  112  A    between atoms: _262  and  _263
REMARK  113  A    between atoms: _262  and  _265
REMARK  114  A    between atoms: _267  and  _269
REMARK  115  A    between atoms: _269  and  _270
REMARK  116  A    between atoms: _269  and  _272
REMARK  117  A    between atoms: _272  and  _273
REMARK  118  A    between atoms: _273  and  _274
REMARK  119  A    between atoms: _277  and  _279
REMARK  120  A    between atoms: _279  and  _280
REMARK  121  A    between atoms: _279  and  _282
REMARK  122  A    between atoms: _282  and  _283
REMARK  123  A    between atoms: _288  and  _290
REMARK  124  A    between atoms: _290  and  _291
REMARK  125  A    between atoms: _294  and  _296
REMARK  126  A    between atoms: _296  and  _297
REMARK  127  A    between atoms: _296  and  _299
REMARK  128  A    between atoms: _299  and  _300
REMARK  129  A    between atoms: _300  and  _301
REMARK  130  A    between atoms: _303  and  _305
REMARK  131  A    between atoms: _305  and  _306
REMARK  132  A    between atoms: _305  and  _308
REMARK  133  A    between atoms: _308  and  _309
REMARK  134  A    between atoms: _319  and  _321
REMARK  135  A    between atoms: _321  and  _322
REMARK  136  A    between atoms: _321  and  _324
REMARK  137  A    between atoms: _324  and  _325
REMARK  138  A    between atoms: _328  and  _330
REMARK  139  A    between atoms: _330  and  _331
REMARK  140  A    between atoms: _330  and  _333
REMARK  141  A    between atoms: _333  and  _334
REMARK  142  A    between atoms: _334  and  _335
REMARK  143  A    between atoms: _340  and  _342
REMARK  144  A    between atoms: _342  and  _343
REMARK  145  A    between atoms: _342  and  _345
REMARK  146  A    between atoms: _345  and  _346
REMARK  147  A    between atoms: _346  and  _347
REMARK  148  A    between atoms: _352  and  _354
REMARK  149  A    between atoms: _354  and  _355
REMARK  150  A    between atoms: _354  and  _357
REMARK  151  A    between atoms: _357  and  _358
REMARK  152  A    between atoms: _364  and  _366
REMARK  153  A    between atoms: _366  and  _367
REMARK  154  A    between atoms: _366  and  _369
REMARK  155  A    between atoms: _371  and  _373
REMARK  156  A    between atoms: _373  and  _374
REMARK  157  A    between atoms: _373  and  _376
REMARK  158  A    between atoms: _376  and  _377
REMARK  159  A    between atoms: _377  and  _378
REMARK  160  A    between atoms: _380  and  _382
REMARK  161  A    between atoms: _382  and  _383
REMARK  162  A    between atoms: _382  and  _385
REMARK  163  A    between atoms: _385  and  _386
REMARK  164  A    between atoms: _391  and  _393
REMARK  165  A    between atoms: _393  and  _394
REMARK  166  A    between atoms: _393  and  _396
REMARK  167  A    between atoms: _396  and  _397
REMARK  168  A    between atoms: _400  and  _402
REMARK  169  A    between atoms: _402  and  _403
REMARK  170  A    between atoms: _402  and  _405
REMARK  171  A    between atoms: _405  and  _406
REMARK  172  A    between atoms: _408  and  _410
REMARK  173  A    between atoms: _410  and  _411
REMARK  174  A    between atoms: _410  and  _413
REMARK  175  A    between atoms: _413  and  _414
REMARK                            x       y       z     vdW  Elec       q    Type
REMARK                         _______ _______ _______ _____ _____    ______ ____
ROOT
ATOM      1  O   HOH     1     -12.319 -25.261 -18.063  0.00  0.00    +0.000 OA
ENDROOT
TORSDOF 0
REMARK  Name = ../refined-set-2016/3t0d/3t0d_pocket.pdb
REMARK  175 active torsions:
REMARK  status: ('A' for Active; 'I' for Inactive)
REMARK    1  A    between atoms: _1  and  _3
REMARK    2  A    between atoms: _3  and  _4
REMARK    3  A    between atoms: _3  and  _6
REMARK    4  A    between atoms: _6  and  _7
REMARK    5  A    between atoms: _12  and  _13
REMARK    6  A    between atoms: _15  and  _17
REMARK    7  A    between atoms: _17  and  _18
REMARK    8  A    between atoms: _17  and  _20
REMARK    9  A    between atoms: _20  and  _21
REMARK   10  A    between atoms: _24  and  _26
REMARK   11  A    between atoms: _26  and  _27
REMARK   12  A    between atoms: _26  and  _29
REMARK   13  A    between atoms: _29  and  _30
REMARK   14  A    between atoms: _35  and  _37
REMARK   15  A    between atoms: _37  and  _38
REMARK   16  A    between atoms: _37  and  _40
REMARK   17  A    between atoms: _43  and  _45
REMARK   18  A    between atoms: _45  and  _46
REMARK   19  A    between atoms: _45  and  _48
REMARK   20  A    between atoms: _48  and  _49
REMARK   21  A    between atoms: _52  and  _54
REMARK   22  A    between atoms: _54  and  _55
REMARK   23  A    between atoms: _54  and  _57
REMARK   24  A    between atoms: _57  and  _58
REMARK   25  A    between atoms: _58  and  _59
REMARK   26  A    between atoms: _64  and  _66
REMARK   27  A    between atoms: _66  and  _67
REMARK   28  A    between atoms: _66  and  _69
REMARK   29  A    between atoms: _69  and  _70
REMARK   30  A    between atoms: _73  and  _75
REMARK   31  A    between atoms: _75  and  _76
REMARK   32  A    between atoms: _75  and  _78
REMARK   33  A    between atoms: _78  and  _79
REMARK   34  A    between atoms: _79  and  _80
REMARK   35  A    between atoms: _82  and  _84
REMARK   36  A    between atoms: _84  and  _85
REMARK   37  A    between atoms: _84  and  _87
REMARK   38  A    between atoms: _87  and  _88
REMARK   39  A    between atoms: _88  and  _89
REMARK   40  A    between atoms: _89  and  _90
REMARK   41  A    between atoms: _99  and  _101
REMARK   42  A    between atoms: _101  and  _102
REMARK   43  A    between atoms: _101  and  _104
REMARK   44  A    between atoms: _104  and  _105
REMARK   45  A    between atoms: _110  and  _112
REMARK   46  A    between atoms: _112  and  _113
REMARK   47  A    between atoms: _112  and  _115
REMARK   48  A    between atoms: _115  and  _116
REMARK   49  A    between atoms: _121  and  _123
REMARK   50  A    between atoms: _123  and  _124
REMARK   51  A    between atoms: _123  and  _126
REMARK   52  A    between atoms: _126  and  _127
REMARK   53  A    between atoms: _127  and  _128
REMARK   54  A    between atoms: _128  and  _129
REMARK   55  A    between atoms: _138  and  _140
REMARK   56  A    between atoms: _140  and  _141
REMARK   57  A    between atoms: _140  and  _143
REMARK   58  A    between atoms: _143  and  _144
REMARK   59  A    between atoms: _146  and  _148
REMARK   60  A    between atoms: _148  and  _149
REMARK   61  A    between atoms: _148  and  _151
REMARK   62  A    between atoms: _151  and  _152
REMARK   63  A    between atoms: _157  and  _159
REMARK   64  A    between atoms: _159  and  _160
REMARK   65  A    between atoms: _159  and  _162
REMARK   66  A    between atoms: _162  and  _163
REMARK   67  A    between atoms: _163  and  _164
REMARK   68  A    between atoms: _167  and  _169
REMARK   69  A    between atoms: _169  and  _170
REMARK   70  A    between atoms: _169  and  _172
REMARK   71  A    between atoms: _172  and  _173
REMARK   72  A    between atoms: _173  and  _174
REMARK   73  A    between atoms: _177  and  _179
REMARK   74  A    between atoms: _179  and  _180
REMARK   75  A    between atoms: _179  and  _182
REMARK   76  A    between atoms: _182  and  _183
REMARK   77  A    between atoms: _184  and  MG_424
REMARK   78  A    between atoms: _188  and  _190
REMARK   79  A    between atoms: _190  and  _191
REMARK   80  A    between atoms: _193  and  _195
REMARK   81  A    between atoms: _195  and  _196
REMARK   82  A    between atoms: _195  and  _198
REMARK   83  A    between atoms: _198  and  _199
REMARK   84  A    between atoms: _204  and  _206
REMARK   85  A    between atoms: _206  and  _207
REMARK   86  A    between atoms: _206  and  _209
REMARK   87  A    between atoms: _209  and  _210
REMARK   88  A    between atoms: _210  and  _211
REMARK   89  A    between atoms: _214  and  _216
REMARK   90  A    between atoms: _216  and  _217
REMARK   91  A    between atoms: _216  and  _219
REMARK   92  A    between atoms: _219  and  _220
REMARK   93  A    between atoms: _220  and  _221
REMARK   94  A    between atoms: _224  and  _226
REMARK   95  A    between atoms: _226  and  _227
REMARK   96  A    between atoms: _226  and  _229
REMARK   97  A    between atoms: _229  and  _230
REMARK   98  A    between atoms: _230  and  _231
REMARK   99  A    between atoms: _233  and  _235
REMARK  100  A    between atoms: _235  and  _236
REMARK  101  A    between atoms: _235  and  _238
REMARK  102  A    between atoms: _238  and  _239
REMARK  103  A    between atoms: _244  and  _245
REMARK  104  A    between atoms: _247  and  _249
REMARK  105  A    between atoms: _249  and  _250
REMARK  106  A    between atoms: _249  and  _252
REMARK  107  A    between atoms: _252  and  _253
REMARK  108  A    between atoms: _253  and  _254
REMARK  109  A    between atoms: _254  and  _255
REMARK  110  A    between atoms: _255  and  _256
REMARK  111  A    between atoms: _260  and  _262
REMARK  112  A    between atoms: _262  and  _263
REMARK  113  A    between atoms: _262  and  _265
REMARK  114  A    between atoms: _267  and  _269
REMARK  115  A    between atoms: _269  and  _270
REMARK  116  A    between atoms: _269  and  _272
REMARK  117  A    between atoms: _272  and  _273
REMARK  118  A    between atoms: _273  and  _274
REMARK  119  A    between atoms: _277  and  _279
REMARK  120  A    between atoms: _279  and  _280
REMARK  121  A    between atoms: _279  and  _282
REMARK  122  A    between atoms: _282  and  _283
REMARK  123  A    between atoms: _288  and  _290
REMARK  124  A    between atoms: _290  and  _291
REMARK  125  A    between atoms: _294  and  _296
REMARK  126  A    between atoms: _296  and  _297
REMARK  127  A    between atoms: _296  and  _299
REMARK  128  A    between atoms: _299  and  _300
REMARK  129  A    between atoms: _300  and  _301
REMARK  130  A    between atoms: _303  and  _305
REMARK  131  A    between atoms: _305  and  _306
REMARK  132  A    between atoms: _305  and  _308
REMARK  133  A    between atoms: _308  and  _309
REMARK  134  A    between atoms: _319  and  _321
REMARK  135  A    between atoms: _321  and  _322
REMARK  136  A    between atoms: _321  and  _324
REMARK  137  A    between atoms: _324  and  _325
REMARK  138  A    between atoms: _328  and  _330
REMARK  139  A    between atoms: _330  and  _331
REMARK  140  A    between atoms: _330  and  _333
REMARK  141  A    between atoms: _333  and  _334
REMARK  142  A    between atoms: _334  and  _335
REMARK  143  A    between atoms: _340  and  _342
REMARK  144  A    between atoms: _342  and  _343
REMARK  145  A    between atoms: _342  and  _345
REMARK  146  A    between atoms: _345  and  _346
REMARK  147  A    between atoms: _346  and  _347
REMARK  148  A    between atoms: _352  and  _354
REMARK  149  A    between atoms: _354  and  _355
REMARK  150  A    between atoms: _354  and  _357
REMARK  151  A    between atoms: _357  and  _358
REMARK  152  A    between atoms: _364  and  _366
REMARK  153  A    between atoms: _366  and  _367
REMARK  154  A    between atoms: _366  and  _369
REMARK  155  A    between atoms: _371  and  _373
REMARK  156  A    between atoms: _373  and  _374
REMARK  157  A    between atoms: _373  and  _376
REMARK  158  A    between atoms: _376  and  _377
REMARK  159  A    between atoms: _377  and  _378
REMARK  160  A    between atoms: _380  and  _382
REMARK  161  A    between atoms: _382  and  _383
REMARK  162  A    between atoms: _382  and  _385
REMARK  163  A    between atoms: _385  and  _386
REMARK  164  A    between atoms: _391  and  _393
REMARK  165  A    between atoms: _393  and  _394
REMARK  166  A    between atoms: _393  and  _396
REMARK  167  A    between atoms: _396  and  _397
REMARK  168  A    between atoms: _400  and  _402
REMARK  169  A    between atoms: _402  and  _403
REMARK  170  A    between atoms: _402  and  _405
REMARK  171  A    between atoms: _405  and  _406
REMARK  172  A    between atoms: _408  and  _410
REMARK  173  A    between atoms: _410  and  _411
REMARK  174  A    between atoms: _410  and  _413
REMARK  175  A    between atoms: _413  and  _414
REMARK                            x       y       z     vdW  Elec       q    Type
REMARK                         _______ _______ _______ _____ _____    ______ ____
ROOT
ATOM      1  O   HOH     1      -8.510 -25.266 -19.008  0.00  0.00    +0.000 OA
ENDROOT
TORSDOF 0
REMARK  Name = ../refined-set-2016/3t0d/3t0d_pocket.pdb
REMARK  175 active torsions:
REMARK  status: ('A' for Active; 'I' for Inactive)
REMARK    1  A    between atoms: _1  and  _3
REMARK    2  A    between atoms: _3  and  _4
REMARK    3  A    between atoms: _3  and  _6
REMARK    4  A    between atoms: _6  and  _7
REMARK    5  A    between atoms: _12  and  _13
REMARK    6  A    between atoms: _15  and  _17
REMARK    7  A    between atoms: _17  and  _18
REMARK    8  A    between atoms: _17  and  _20
REMARK    9  A    between atoms: _20  and  _21
REMARK   10  A    between atoms: _24  and  _26
REMARK   11  A    between atoms: _26  and  _27
REMARK   12  A    between atoms: _26  and  _29
REMARK   13  A    between atoms: _29  and  _30
REMARK   14  A    between atoms: _35  and  _37
REMARK   15  A    between atoms: _37  and  _38
REMARK   16  A    between atoms: _37  and  _40
REMARK   17  A    between atoms: _43  and  _45
REMARK   18  A    between atoms: _45  and  _46
REMARK   19  A    between atoms: _45  and  _48
REMARK   20  A    between atoms: _48  and  _49
REMARK   21  A    between atoms: _52  and  _54
REMARK   22  A    between atoms: _54  and  _55
REMARK   23  A    between atoms: _54  and  _57
REMARK   24  A    between atoms: _57  and  _58
REMARK   25  A    between atoms: _58  and  _59
REMARK   26  A    between atoms: _64  and  _66
REMARK   27  A    between atoms: _66  and  _67
REMARK   28  A    between atoms: _66  and  _69
REMARK   29  A    between atoms: _69  and  _70
REMARK   30  A    between atoms: _73  and  _75
REMARK   31  A    between atoms: _75  and  _76
REMARK   32  A    between atoms: _75  and  _78
REMARK   33  A    between atoms: _78  and  _79
REMARK   34  A    between atoms: _79  and  _80
REMARK   35  A    between atoms: _82  and  _84
REMARK   36  A    between atoms: _84  and  _85
REMARK   37  A    between atoms: _84  and  _87
REMARK   38  A    between atoms: _87  and  _88
REMARK   39  A    between atoms: _88  and  _89
REMARK   40  A    between atoms: _89  and  _90
REMARK   41  A    between atoms: _99  and  _101
REMARK   42  A    between atoms: _101  and  _102
REMARK   43  A    between atoms: _101  and  _104
REMARK   44  A    between atoms: _104  and  _105
REMARK   45  A    between atoms: _110  and  _112
REMARK   46  A    between atoms: _112  and  _113
REMARK   47  A    between atoms: _112  and  _115
REMARK   48  A    between atoms: _115  and  _116
REMARK   49  A    between atoms: _121  and  _123
REMARK   50  A    between atoms: _123  and  _124
REMARK   51  A    between atoms: _123  and  _126
REMARK   52  A    between atoms: _126  and  _127
REMARK   53  A    between atoms: _127  and  _128
REMARK   54  A    between atoms: _128  and  _129
REMARK   55  A    between atoms: _138  and  _140
REMARK   56  A    between atoms: _140  and  _141
REMARK   57  A    between atoms: _140  and  _143
REMARK   58  A    between atoms: _143  and  _144
REMARK   59  A    between atoms: _146  and  _148
REMARK   60  A    between atoms: _148  and  _149
REMARK   61  A    between atoms: _148  and  _151
REMARK   62  A    between atoms: _151  and  _152
REMARK   63  A    between atoms: _157  and  _159
REMARK   64  A    between atoms: _159  and  _160
REMARK   65  A    between atoms: _159  and  _162
REMARK   66  A    between atoms: _162  and  _163
REMARK   67  A    between atoms: _163  and  _164
REMARK   68  A    between atoms: _167  and  _169
REMARK   69  A    between atoms: _169  and  _170
REMARK   70  A    between atoms: _169  and  _172
REMARK   71  A    between atoms: _172  and  _173
REMARK   72  A    between atoms: _173  and  _174
REMARK   73  A    between atoms: _177  and  _179
REMARK   74  A    between atoms: _179  and  _180
REMARK   75  A    between atoms: _179  and  _182
REMARK   76  A    between atoms: _182  and  _183
REMARK   77  A    between atoms: _184  and  MG_424
REMARK   78  A    between atoms: _188  and  _190
REMARK   79  A    between atoms: _190  and  _191
REMARK   80  A    between atoms: _193  and  _195
REMARK   81  A    between atoms: _195  and  _196
REMARK   82  A    between atoms: _195  and  _198
REMARK   83  A    between atoms: _198  and  _199
REMARK   84  A    between atoms: _204  and  _206
REMARK   85  A    between atoms: _206  and  _207
REMARK   86  A    between atoms: _206  and  _209
REMARK   87  A    between atoms: _209  and  _210
REMARK   88  A    between atoms: _210  and  _211
REMARK   89  A    between atoms: _214  and  _216
REMARK   90  A    between atoms: _216  and  _217
REMARK   91  A    between atoms: _216  and  _219
REMARK   92  A    between atoms: _219  and  _220
REMARK   93  A    between atoms: _220  and  _221
REMARK   94  A    between atoms: _224  and  _226
REMARK   95  A    between atoms: _226  and  _227
REMARK   96  A    between atoms: _226  and  _229
REMARK   97  A    between atoms: _229  and  _230
REMARK   98  A    between atoms: _230  and  _231
REMARK   99  A    between atoms: _233  and  _235
REMARK  100  A    between atoms: _235  and  _236
REMARK  101  A    between atoms: _235  and  _238
REMARK  102  A    between atoms: _238  and  _239
REMARK  103  A    between atoms: _244  and  _245
REMARK  104  A    between atoms: _247  and  _249
REMARK  105  A    between atoms: _249  and  _250
REMARK  106  A    between atoms: _249  and  _252
REMARK  107  A    between atoms: _252  and  _253
REMARK  108  A    between atoms: _253  and  _254
REMARK  109  A    between atoms: _254  and  _255
REMARK  110  A    between atoms: _255  and  _256
REMARK  111  A    between atoms: _260  and  _262
REMARK  112  A    between atoms: _262  and  _263
REMARK  113  A    between atoms: _262  and  _265
REMARK  114  A    between atoms: _267  and  _269
REMARK  115  A    between atoms: _269  and  _270
REMARK  116  A    between atoms: _269  and  _272
REMARK  117  A    between atoms: _272  and  _273
REMARK  118  A    between atoms: _273  and  _274
REMARK  119  A    between atoms: _277  and  _279
REMARK  120  A    between atoms: _279  and  _280
REMARK  121  A    between atoms: _279  and  _282
REMARK  122  A    between atoms: _282  and  _283
REMARK  123  A    between atoms: _288  and  _290
REMARK  124  A    between atoms: _290  and  _291
REMARK  125  A    between atoms: _294  and  _296
REMARK  126  A    between atoms: _296  and  _297
REMARK  127  A    between atoms: _296  and  _299
REMARK  128  A    between atoms: _299  and  _300
REMARK  129  A    between atoms: _300  and  _301
REMARK  130  A    between atoms: _303  and  _305
REMARK  131  A    between atoms: _305  and  _306
REMARK  132  A    between atoms: _305  and  _308
REMARK  133  A    between atoms: _308  and  _309
REMARK  134  A    between atoms: _319  and  _321
REMARK  135  A    between atoms: _321  and  _322
REMARK  136  A    between atoms: _321  and  _324
REMARK  137  A    between atoms: _324  and  _325
REMARK  138  A    between atoms: _328  and  _330
REMARK  139  A    between atoms: _330  and  _331
REMARK  140  A    between atoms: _330  and  _333
REMARK  141  A    between atoms: _333  and  _334
REMARK  142  A    between atoms: _334  and  _335
REMARK  143  A    between atoms: _340  and  _342
REMARK  144  A    between atoms: _342  and  _343
REMARK  145  A    between atoms: _342  and  _345
REMARK  146  A    between atoms: _345  and  _346
REMARK  147  A    between atoms: _346  and  _347
REMARK  148  A    between atoms: _352  and  _354
REMARK  149  A    between atoms: _354  and  _355
REMARK  150  A    between atoms: _354  and  _357
REMARK  151  A    between atoms: _357  and  _358
REMARK  152  A    between atoms: _364  and  _366
REMARK  153  A    between atoms: _366  and  _367
REMARK  154  A    between atoms: _366  and  _369
REMARK  155  A    between atoms: _371  and  _373
REMARK  156  A    between atoms: _373  and  _374
REMARK  157  A    between atoms: _373  and  _376
REMARK  158  A    between atoms: _376  and  _377
REMARK  159  A    between atoms: _377  and  _378
REMARK  160  A    between atoms: _380  and  _382
REMARK  161  A    between atoms: _382  and  _383
REMARK  162  A    between atoms: _382  and  _385
REMARK  163  A    between atoms: _385  and  _386
REMARK  164  A    between atoms: _391  and  _393
REMARK  165  A    between atoms: _393  and  _394
REMARK  166  A    between atoms: _393  and  _396
REMARK  167  A    between atoms: _396  and  _397
REMARK  168  A    between atoms: _400  and  _402
REMARK  169  A    between atoms: _402  and  _403
REMARK  170  A    between atoms: _402  and  _405
REMARK  171  A    between atoms: _405  and  _406
REMARK  172  A    between atoms: _408  and  _410
REMARK  173  A    between atoms: _410  and  _411
REMARK  174  A    between atoms: _410  and  _413
REMARK  175  A    between atoms: _413  and  _414
REMARK                            x       y       z     vdW  Elec       q    Type
REMARK                         _______ _______ _______ _____ _____    ______ ____
ROOT
ATOM      1  O   HOH     1      -7.556 -31.620 -31.918  0.00  0.00    +0.000 OA
ENDROOT
TORSDOF 0
REMARK  Name = ../refined-set-2016/3t0d/3t0d_pocket.pdb
REMARK  175 active torsions:
REMARK  status: ('A' for Active; 'I' for Inactive)
REMARK    1  A    between atoms: _1  and  _3
REMARK    2  A    between atoms: _3  and  _4
REMARK    3  A    between atoms: _3  and  _6
REMARK    4  A    between atoms: _6  and  _7
REMARK    5  A    between atoms: _12  and  _13
REMARK    6  A    between atoms: _15  and  _17
REMARK    7  A    between atoms: _17  and  _18
REMARK    8  A    between atoms: _17  and  _20
REMARK    9  A    between atoms: _20  and  _21
REMARK   10  A    between atoms: _24  and  _26
REMARK   11  A    between atoms: _26  and  _27
REMARK   12  A    between atoms: _26  and  _29
REMARK   13  A    between atoms: _29  and  _30
REMARK   14  A    between atoms: _35  and  _37
REMARK   15  A    between atoms: _37  and  _38
REMARK   16  A    between atoms: _37  and  _40
REMARK   17  A    between atoms: _43  and  _45
REMARK   18  A    between atoms: _45  and  _46
REMARK   19  A    between atoms: _45  and  _48
REMARK   20  A    between atoms: _48  and  _49
REMARK   21  A    between atoms: _52  and  _54
REMARK   22  A    between atoms: _54  and  _55
REMARK   23  A    between atoms: _54  and  _57
REMARK   24  A    between atoms: _57  and  _58
REMARK   25  A    between atoms: _58  and  _59
REMARK   26  A    between atoms: _64  and  _66
REMARK   27  A    between atoms: _66  and  _67
REMARK   28  A    between atoms: _66  and  _69
REMARK   29  A    between atoms: _69  and  _70
REMARK   30  A    between atoms: _73  and  _75
REMARK   31  A    between atoms: _75  and  _76
REMARK   32  A    between atoms: _75  and  _78
REMARK   33  A    between atoms: _78  and  _79
REMARK   34  A    between atoms: _79  and  _80
REMARK   35  A    between atoms: _82  and  _84
REMARK   36  A    between atoms: _84  and  _85
REMARK   37  A    between atoms: _84  and  _87
REMARK   38  A    between atoms: _87  and  _88
REMARK   39  A    between atoms: _88  and  _89
REMARK   40  A    between atoms: _89  and  _90
REMARK   41  A    between atoms: _99  and  _101
REMARK   42  A    between atoms: _101  and  _102
REMARK   43  A    between atoms: _101  and  _104
REMARK   44  A    between atoms: _104  and  _105
REMARK   45  A    between atoms: _110  and  _112
REMARK   46  A    between atoms: _112  and  _113
REMARK   47  A    between atoms: _112  and  _115
REMARK   48  A    between atoms: _115  and  _116
REMARK   49  A    between atoms: _121  and  _123
REMARK   50  A    between atoms: _123  and  _124
REMARK   51  A    between atoms: _123  and  _126
REMARK   52  A    between atoms: _126  and  _127
REMARK   53  A    between atoms: _127  and  _128
REMARK   54  A    between atoms: _128  and  _129
REMARK   55  A    between atoms: _138  and  _140
REMARK   56  A    between atoms: _140  and  _141
REMARK   57  A    between atoms: _140  and  _143
REMARK   58  A    between atoms: _143  and  _144
REMARK   59  A    between atoms: _146  and  _148
REMARK   60  A    between atoms: _148  and  _149
REMARK   61  A    between atoms: _148  and  _151
REMARK   62  A    between atoms: _151  and  _152
REMARK   63  A    between atoms: _157  and  _159
REMARK   64  A    between atoms: _159  and  _160
REMARK   65  A    between atoms: _159  and  _162
REMARK   66  A    between atoms: _162  and  _163
REMARK   67  A    between atoms: _163  and  _164
REMARK   68  A    between atoms: _167  and  _169
REMARK   69  A    between atoms: _169  and  _170
REMARK   70  A    between atoms: _169  and  _172
REMARK   71  A    between atoms: _172  and  _173
REMARK   72  A    between atoms: _173  and  _174
REMARK   73  A    between atoms: _177  and  _179
REMARK   74  A    between atoms: _179  and  _180
REMARK   75  A    between atoms: _179  and  _182
REMARK   76  A    between atoms: _182  and  _183
REMARK   77  A    between atoms: _184  and  MG_424
REMARK   78  A    between atoms: _188  and  _190
REMARK   79  A    between atoms: _190  and  _191
REMARK   80  A    between atoms: _193  and  _195
REMARK   81  A    between atoms: _195  and  _196
REMARK   82  A    between atoms: _195  and  _198
REMARK   83  A    between atoms: _198  and  _199
REMARK   84  A    between atoms: _204  and  _206
REMARK   85  A    between atoms: _206  and  _207
REMARK   86  A    between atoms: _206  and  _209
REMARK   87  A    between atoms: _209  and  _210
REMARK   88  A    between atoms: _210  and  _211
REMARK   89  A    between atoms: _214  and  _216
REMARK   90  A    between atoms: _216  and  _217
REMARK   91  A    between atoms: _216  and  _219
REMARK   92  A    between atoms: _219  and  _220
REMARK   93  A    between atoms: _220  and  _221
REMARK   94  A    between atoms: _224  and  _226
REMARK   95  A    between atoms: _226  and  _227
REMARK   96  A    between atoms: _226  and  _229
REMARK   97  A    between atoms: _229  and  _230
REMARK   98  A    between atoms: _230  and  _231
REMARK   99  A    between atoms: _233  and  _235
REMARK  100  A    between atoms: _235  and  _236
REMARK  101  A    between atoms: _235  and  _238
REMARK  102  A    between atoms: _238  and  _239
REMARK  103  A    between atoms: _244  and  _245
REMARK  104  A    between atoms: _247  and  _249
REMARK  105  A    between atoms: _249  and  _250
REMARK  106  A    between atoms: _249  and  _252
REMARK  107  A    between atoms: _252  and  _253
REMARK  108  A    between atoms: _253  and  _254
REMARK  109  A    between atoms: _254  and  _255
REMARK  110  A    between atoms: _255  and  _256
REMARK  111  A    between atoms: _260  and  _262
REMARK  112  A    between atoms: _262  and  _263
REMARK  113  A    between atoms: _262  and  _265
REMARK  114  A    between atoms: _267  and  _269
REMARK  115  A    between atoms: _269  and  _270
REMARK  116  A    between atoms: _269  and  _272
REMARK  117  A    between atoms: _272  and  _273
REMARK  118  A    between atoms: _273  and  _274
REMARK  119  A    between atoms: _277  and  _279
REMARK  120  A    between atoms: _279  and  _280
REMARK  121  A    between atoms: _279  and  _282
REMARK  122  A    between atoms: _282  and  _283
REMARK  123  A    between atoms: _288  and  _290
REMARK  124  A    between atoms: _290  and  _291
REMARK  125  A    between atoms: _294  and  _296
REMARK  126  A    between atoms: _296  and  _297
REMARK  127  A    between atoms: _296  and  _299
REMARK  128  A    between atoms: _299  and  _300
REMARK  129  A    between atoms: _300  and  _301
REMARK  130  A    between atoms: _303  and  _305
REMARK  131  A    between atoms: _305  and  _306
REMARK  132  A    between atoms: _305  and  _308
REMARK  133  A    between atoms: _308  and  _309
REMARK  134  A    between atoms: _319  and  _321
REMARK  135  A    between atoms: _321  and  _322
REMARK  136  A    between atoms: _321  and  _324
REMARK  137  A    between atoms: _324  and  _325
REMARK  138  A    between atoms: _328  and  _330
REMARK  139  A    between atoms: _330  and  _331
REMARK  140  A    between atoms: _330  and  _333
REMARK  141  A    between atoms: _333  and  _334
REMARK  142  A    between atoms: _334  and  _335
REMARK  143  A    between atoms: _340  and  _342
REMARK  144  A    between atoms: _342  and  _343
REMARK  145  A    between atoms: _342  and  _345
REMARK  146  A    between atoms: _345  and  _346
REMARK  147  A    between atoms: _346  and  _347
REMARK  148  A    between atoms: _352  and  _354
REMARK  149  A    between atoms: _354  and  _355
REMARK  150  A    between atoms: _354  and  _357
REMARK  151  A    between atoms: _357  and  _358
REMARK  152  A    between atoms: _364  and  _366
REMARK  153  A    between atoms: _366  and  _367
REMARK  154  A    between atoms: _366  and  _369
REMARK  155  A    between atoms: _371  and  _373
REMARK  156  A    between atoms: _373  and  _374
REMARK  157  A    between atoms: _373  and  _376
REMARK  158  A    between atoms: _376  and  _377
REMARK  159  A    between atoms: _377  and  _378
REMARK  160  A    between atoms: _380  and  _382
REMARK  161  A    between atoms: _382  and  _383
REMARK  162  A    between atoms: _382  and  _385
REMARK  163  A    between atoms: _385  and  _386
REMARK  164  A    between atoms: _391  and  _393
REMARK  165  A    between atoms: _393  and  _394
REMARK  166  A    between atoms: _393  and  _396
REMARK  167  A    between atoms: _396  and  _397
REMARK  168  A    between atoms: _400  and  _402
REMARK  169  A    between atoms: _402  and  _403
REMARK  170  A    between atoms: _402  and  _405
REMARK  171  A    between atoms: _405  and  _406
REMARK  172  A    between atoms: _408  and  _410
REMARK  173  A    between atoms: _410  and  _411
REMARK  174  A    between atoms: _410  and  _413
REMARK  175  A    between atoms: _413  and  _414
REMARK                            x       y       z     vdW  Elec       q    Type
REMARK                         _______ _______ _______ _____ _____    ______ ____
ROOT
ATOM      1  O   HOH     1     -12.408 -19.399 -20.606  0.00  0.00    +0.000 OA
ENDROOT
TORSDOF 0
REMARK  Name = ../refined-set-2016/3t0d/3t0d_pocket.pdb
REMARK  175 active torsions:
REMARK  status: ('A' for Active; 'I' for Inactive)
REMARK    1  A    between atoms: _1  and  _3
REMARK    2  A    between atoms: _3  and  _4
REMARK    3  A    between atoms: _3  and  _6
REMARK    4  A    between atoms: _6  and  _7
REMARK    5  A    between atoms: _12  and  _13
REMARK    6  A    between atoms: _15  and  _17
REMARK    7  A    between atoms: _17  and  _18
REMARK    8  A    between atoms: _17  and  _20
REMARK    9  A    between atoms: _20  and  _21
REMARK   10  A    between atoms: _24  and  _26
REMARK   11  A    between atoms: _26  and  _27
REMARK   12  A    between atoms: _26  and  _29
REMARK   13  A    between atoms: _29  and  _30
REMARK   14  A    between atoms: _35  and  _37
REMARK   15  A    between atoms: _37  and  _38
REMARK   16  A    between atoms: _37  and  _40
REMARK   17  A    between atoms: _43  and  _45
REMARK   18  A    between atoms: _45  and  _46
REMARK   19  A    between atoms: _45  and  _48
REMARK   20  A    between atoms: _48  and  _49
REMARK   21  A    between atoms: _52  and  _54
REMARK   22  A    between atoms: _54  and  _55
REMARK   23  A    between atoms: _54  and  _57
REMARK   24  A    between atoms: _57  and  _58
REMARK   25  A    between atoms: _58  and  _59
REMARK   26  A    between atoms: _64  and  _66
REMARK   27  A    between atoms: _66  and  _67
REMARK   28  A    between atoms: _66  and  _69
REMARK   29  A    between atoms: _69  and  _70
REMARK   30  A    between atoms: _73  and  _75
REMARK   31  A    between atoms: _75  and  _76
REMARK   32  A    between atoms: _75  and  _78
REMARK   33  A    between atoms: _78  and  _79
REMARK   34  A    between atoms: _79  and  _80
REMARK   35  A    between atoms: _82  and  _84
REMARK   36  A    between atoms: _84  and  _85
REMARK   37  A    between atoms: _84  and  _87
REMARK   38  A    between atoms: _87  and  _88
REMARK   39  A    between atoms: _88  and  _89
REMARK   40  A    between atoms: _89  and  _90
REMARK   41  A    between atoms: _99  and  _101
REMARK   42  A    between atoms: _101  and  _102
REMARK   43  A    between atoms: _101  and  _104
REMARK   44  A    between atoms: _104  and  _105
REMARK   45  A    between atoms: _110  and  _112
REMARK   46  A    between atoms: _112  and  _113
REMARK   47  A    between atoms: _112  and  _115
REMARK   48  A    between atoms: _115  and  _116
REMARK   49  A    between atoms: _121  and  _123
REMARK   50  A    between atoms: _123  and  _124
REMARK   51  A    between atoms: _123  and  _126
REMARK   52  A    between atoms: _126  and  _127
REMARK   53  A    between atoms: _127  and  _128
REMARK   54  A    between atoms: _128  and  _129
REMARK   55  A    between atoms: _138  and  _140
REMARK   56  A    between atoms: _140  and  _141
REMARK   57  A    between atoms: _140  and  _143
REMARK   58  A    between atoms: _143  and  _144
REMARK   59  A    between atoms: _146  and  _148
REMARK   60  A    between atoms: _148  and  _149
REMARK   61  A    between atoms: _148  and  _151
REMARK   62  A    between atoms: _151  and  _152
REMARK   63  A    between atoms: _157  and  _159
REMARK   64  A    between atoms: _159  and  _160
REMARK   65  A    between atoms: _159  and  _162
REMARK   66  A    between atoms: _162  and  _163
REMARK   67  A    between atoms: _163  and  _164
REMARK   68  A    between atoms: _167  and  _169
REMARK   69  A    between atoms: _169  and  _170
REMARK   70  A    between atoms: _169  and  _172
REMARK   71  A    between atoms: _172  and  _173
REMARK   72  A    between atoms: _173  and  _174
REMARK   73  A    between atoms: _177  and  _179
REMARK   74  A    between atoms: _179  and  _180
REMARK   75  A    between atoms: _179  and  _182
REMARK   76  A    between atoms: _182  and  _183
REMARK   77  A    between atoms: _184  and  MG_424
REMARK   78  A    between atoms: _188  and  _190
REMARK   79  A    between atoms: _190  and  _191
REMARK   80  A    between atoms: _193  and  _195
REMARK   81  A    between atoms: _195  and  _196
REMARK   82  A    between atoms: _195  and  _198
REMARK   83  A    between atoms: _198  and  _199
REMARK   84  A    between atoms: _204  and  _206
REMARK   85  A    between atoms: _206  and  _207
REMARK   86  A    between atoms: _206  and  _209
REMARK   87  A    between atoms: _209  and  _210
REMARK   88  A    between atoms: _210  and  _211
REMARK   89  A    between atoms: _214  and  _216
REMARK   90  A    between atoms: _216  and  _217
REMARK   91  A    between atoms: _216  and  _219
REMARK   92  A    between atoms: _219  and  _220
REMARK   93  A    between atoms: _220  and  _221
REMARK   94  A    between atoms: _224  and  _226
REMARK   95  A    between atoms: _226  and  _227
REMARK   96  A    between atoms: _226  and  _229
REMARK   97  A    between atoms: _229  and  _230
REMARK   98  A    between atoms: _230  and  _231
REMARK   99  A    between atoms: _233  and  _235
REMARK  100  A    between atoms: _235  and  _236
REMARK  101  A    between atoms: _235  and  _238
REMARK  102  A    between atoms: _238  and  _239
REMARK  103  A    between atoms: _244  and  _245
REMARK  104  A    between atoms: _247  and  _249
REMARK  105  A    between atoms: _249  and  _250
REMARK  106  A    between atoms: _249  and  _252
REMARK  107  A    between atoms: _252  and  _253
REMARK  108  A    between atoms: _253  and  _254
REMARK  109  A    between atoms: _254  and  _255
REMARK  110  A    between atoms: _255  and  _256
REMARK  111  A    between atoms: _260  and  _262
REMARK  112  A    between atoms: _262  and  _263
REMARK  113  A    between atoms: _262  and  _265
REMARK  114  A    between atoms: _267  and  _269
REMARK  115  A    between atoms: _269  and  _270
REMARK  116  A    between atoms: _269  and  _272
REMARK  117  A    between atoms: _272  and  _273
REMARK  118  A    between atoms: _273  and  _274
REMARK  119  A    between atoms: _277  and  _279
REMARK  120  A    between atoms: _279  and  _280
REMARK  121  A    between atoms: _279  and  _282
REMARK  122  A    between atoms: _282  and  _283
REMARK  123  A    between atoms: _288  and  _290
REMARK  124  A    between atoms: _290  and  _291
REMARK  125  A    between atoms: _294  and  _296
REMARK  126  A    between atoms: _296  and  _297
REMARK  127  A    between atoms: _296  and  _299
REMARK  128  A    between atoms: _299  and  _300
REMARK  129  A    between atoms: _300  and  _301
REMARK  130  A    between atoms: _303  and  _305
REMARK  131  A    between atoms: _305  and  _306
REMARK  132  A    between atoms: _305  and  _308
REMARK  133  A    between atoms: _308  and  _309
REMARK  134  A    between atoms: _319  and  _321
REMARK  135  A    between atoms: _321  and  _322
REMARK  136  A    between atoms: _321  and  _324
REMARK  137  A    between atoms: _324  and  _325
REMARK  138  A    between atoms: _328  and  _330
REMARK  139  A    between atoms: _330  and  _331
REMARK  140  A    between atoms: _330  and  _333
REMARK  141  A    between atoms: _333  and  _334
REMARK  142  A    between atoms: _334  and  _335
REMARK  143  A    between atoms: _340  and  _342
REMARK  144  A    between atoms: _342  and  _343
REMARK  145  A    between atoms: _342  and  _345
REMARK  146  A    between atoms: _345  and  _346
REMARK  147  A    between atoms: _346  and  _347
REMARK  148  A    between atoms: _352  and  _354
REMARK  149  A    between atoms: _354  and  _355
REMARK  150  A    between atoms: _354  and  _357
REMARK  151  A    between atoms: _357  and  _358
REMARK  152  A    between atoms: _364  and  _366
REMARK  153  A    between atoms: _366  and  _367
REMARK  154  A    between atoms: _366  and  _369
REMARK  155  A    between atoms: _371  and  _373
REMARK  156  A    between atoms: _373  and  _374
REMARK  157  A    between atoms: _373  and  _376
REMARK  158  A    between atoms: _376  and  _377
REMARK  159  A    between atoms: _377  and  _378
REMARK  160  A    between atoms: _380  and  _382
REMARK  161  A    between atoms: _382  and  _383
REMARK  162  A    between atoms: _382  and  _385
REMARK  163  A    between atoms: _385  and  _386
REMARK  164  A    between atoms: _391  and  _393
REMARK  165  A    between atoms: _393  and  _394
REMARK  166  A    between atoms: _393  and  _396
REMARK  167  A    between atoms: _396  and  _397
REMARK  168  A    between atoms: _400  and  _402
REMARK  169  A    between atoms: _402  and  _403
REMARK  170  A    between atoms: _402  and  _405
REMARK  171  A    between atoms: _405  and  _406
REMARK  172  A    between atoms: _408  and  _410
REMARK  173  A    between atoms: _410  and  _411
REMARK  174  A    between atoms: _410  and  _413
REMARK  175  A    between atoms: _413  and  _414
REMARK                            x       y       z     vdW  Elec       q    Type
REMARK                         _______ _______ _______ _____ _____    ______ ____
ROOT
ATOM      1  O   HOH     1     -15.282 -23.066 -23.093  0.00  0.00    +0.000 OA
ENDROOT
TORSDOF 0
REMARK  Name = ../refined-set-2016/3t0d/3t0d_pocket.pdb
REMARK  175 active torsions:
REMARK  status: ('A' for Active; 'I' for Inactive)
REMARK    1  A    between atoms: _1  and  _3
REMARK    2  A    between atoms: _3  and  _4
REMARK    3  A    between atoms: _3  and  _6
REMARK    4  A    between atoms: _6  and  _7
REMARK    5  A    between atoms: _12  and  _13
REMARK    6  A    between atoms: _15  and  _17
REMARK    7  A    between atoms: _17  and  _18
REMARK    8  A    between atoms: _17  and  _20
REMARK    9  A    between atoms: _20  and  _21
REMARK   10  A    between atoms: _24  and  _26
REMARK   11  A    between atoms: _26  and  _27
REMARK   12  A    between atoms: _26  and  _29
REMARK   13  A    between atoms: _29  and  _30
REMARK   14  A    between atoms: _35  and  _37
REMARK   15  A    between atoms: _37  and  _38
REMARK   16  A    between atoms: _37  and  _40
REMARK   17  A    between atoms: _43  and  _45
REMARK   18  A    between atoms: _45  and  _46
REMARK   19  A    between atoms: _45  and  _48
REMARK   20  A    between atoms: _48  and  _49
REMARK   21  A    between atoms: _52  and  _54
REMARK   22  A    between atoms: _54  and  _55
REMARK   23  A    between atoms: _54  and  _57
REMARK   24  A    between atoms: _57  and  _58
REMARK   25  A    between atoms: _58  and  _59
REMARK   26  A    between atoms: _64  and  _66
REMARK   27  A    between atoms: _66  and  _67
REMARK   28  A    between atoms: _66  and  _69
REMARK   29  A    between atoms: _69  and  _70
REMARK   30  A    between atoms: _73  and  _75
REMARK   31  A    between atoms: _75  and  _76
REMARK   32  A    between atoms: _75  and  _78
REMARK   33  A    between atoms: _78  and  _79
REMARK   34  A    between atoms: _79  and  _80
REMARK   35  A    between atoms: _82  and  _84
REMARK   36  A    between atoms: _84  and  _85
REMARK   37  A    between atoms: _84  and  _87
REMARK   38  A    between atoms: _87  and  _88
REMARK   39  A    between atoms: _88  and  _89
REMARK   40  A    between atoms: _89  and  _90
REMARK   41  A    between atoms: _99  and  _101
REMARK   42  A    between atoms: _101  and  _102
REMARK   43  A    between atoms: _101  and  _104
REMARK   44  A    between atoms: _104  and  _105
REMARK   45  A    between atoms: _110  and  _112
REMARK   46  A    between atoms: _112  and  _113
REMARK   47  A    between atoms: _112  and  _115
REMARK   48  A    between atoms: _115  and  _116
REMARK   49  A    between atoms: _121  and  _123
REMARK   50  A    between atoms: _123  and  _124
REMARK   51  A    between atoms: _123  and  _126
REMARK   52  A    between atoms: _126  and  _127
REMARK   53  A    between atoms: _127  and  _128
REMARK   54  A    between atoms: _128  and  _129
REMARK   55  A    between atoms: _138  and  _140
REMARK   56  A    between atoms: _140  and  _141
REMARK   57  A    between atoms: _140  and  _143
REMARK   58  A    between atoms: _143  and  _144
REMARK   59  A    between atoms: _146  and  _148
REMARK   60  A    between atoms: _148  and  _149
REMARK   61  A    between atoms: _148  and  _151
REMARK   62  A    between atoms: _151  and  _152
REMARK   63  A    between atoms: _157  and  _159
REMARK   64  A    between atoms: _159  and  _160
REMARK   65  A    between atoms: _159  and  _162
REMARK   66  A    between atoms: _162  and  _163
REMARK   67  A    between atoms: _163  and  _164
REMARK   68  A    between atoms: _167  and  _169
REMARK   69  A    between atoms: _169  and  _170
REMARK   70  A    between atoms: _169  and  _172
REMARK   71  A    between atoms: _172  and  _173
REMARK   72  A    between atoms: _173  and  _174
REMARK   73  A    between atoms: _177  and  _179
REMARK   74  A    between atoms: _179  and  _180
REMARK   75  A    between atoms: _179  and  _182
REMARK   76  A    between atoms: _182  and  _183
REMARK   77  A    between atoms: _184  and  MG_424
REMARK   78  A    between atoms: _188  and  _190
REMARK   79  A    between atoms: _190  and  _191
REMARK   80  A    between atoms: _193  and  _195
REMARK   81  A    between atoms: _195  and  _196
REMARK   82  A    between atoms: _195  and  _198
REMARK   83  A    between atoms: _198  and  _199
REMARK   84  A    between atoms: _204  and  _206
REMARK   85  A    between atoms: _206  and  _207
REMARK   86  A    between atoms: _206  and  _209
REMARK   87  A    between atoms: _209  and  _210
REMARK   88  A    between atoms: _210  and  _211
REMARK   89  A    between atoms: _214  and  _216
REMARK   90  A    between atoms: _216  and  _217
REMARK   91  A    between atoms: _216  and  _219
REMARK   92  A    between atoms: _219  and  _220
REMARK   93  A    between atoms: _220  and  _221
REMARK   94  A    between atoms: _224  and  _226
REMARK   95  A    between atoms: _226  and  _227
REMARK   96  A    between atoms: _226  and  _229
REMARK   97  A    between atoms: _229  and  _230
REMARK   98  A    between atoms: _230  and  _231
REMARK   99  A    between atoms: _233  and  _235
REMARK  100  A    between atoms: _235  and  _236
REMARK  101  A    between atoms: _235  and  _238
REMARK  102  A    between atoms: _238  and  _239
REMARK  103  A    between atoms: _244  and  _245
REMARK  104  A    between atoms: _247  and  _249
REMARK  105  A    between atoms: _249  and  _250
REMARK  106  A    between atoms: _249  and  _252
REMARK  107  A    between atoms: _252  and  _253
REMARK  108  A    between atoms: _253  and  _254
REMARK  109  A    between atoms: _254  and  _255
REMARK  110  A    between atoms: _255  and  _256
REMARK  111  A    between atoms: _260  and  _262
REMARK  112  A    between atoms: _262  and  _263
REMARK  113  A    between atoms: _262  and  _265
REMARK  114  A    between atoms: _267  and  _269
REMARK  115  A    between atoms: _269  and  _270
REMARK  116  A    between atoms: _269  and  _272
REMARK  117  A    between atoms: _272  and  _273
REMARK  118  A    between atoms: _273  and  _274
REMARK  119  A    between atoms: _277  and  _279
REMARK  120  A    between atoms: _279  and  _280
REMARK  121  A    between atoms: _279  and  _282
REMARK  122  A    between atoms: _282  and  _283
REMARK  123  A    between atoms: _288  and  _290
REMARK  124  A    between atoms: _290  and  _291
REMARK  125  A    between atoms: _294  and  _296
REMARK  126  A    between atoms: _296  and  _297
REMARK  127  A    between atoms: _296  and  _299
REMARK  128  A    between atoms: _299  and  _300
REMARK  129  A    between atoms: _300  and  _301
REMARK  130  A    between atoms: _303  and  _305
REMARK  131  A    between atoms: _305  and  _306
REMARK  132  A    between atoms: _305  and  _308
REMARK  133  A    between atoms: _308  and  _309
REMARK  134  A    between atoms: _319  and  _321
REMARK  135  A    between atoms: _321  and  _322
REMARK  136  A    between atoms: _321  and  _324
REMARK  137  A    between atoms: _324  and  _325
REMARK  138  A    between atoms: _328  and  _330
REMARK  139  A    between atoms: _330  and  _331
REMARK  140  A    between atoms: _330  and  _333
REMARK  141  A    between atoms: _333  and  _334
REMARK  142  A    between atoms: _334  and  _335
REMARK  143  A    between atoms: _340  and  _342
REMARK  144  A    between atoms: _342  and  _343
REMARK  145  A    between atoms: _342  and  _345
REMARK  146  A    between atoms: _345  and  _346
REMARK  147  A    between atoms: _346  and  _347
REMARK  148  A    between atoms: _352  and  _354
REMARK  149  A    between atoms: _354  and  _355
REMARK  150  A    between atoms: _354  and  _357
REMARK  151  A    between atoms: _357  and  _358
REMARK  152  A    between atoms: _364  and  _366
REMARK  153  A    between atoms: _366  and  _367
REMARK  154  A    between atoms: _366  and  _369
REMARK  155  A    between atoms: _371  and  _373
REMARK  156  A    between atoms: _373  and  _374
REMARK  157  A    between atoms: _373  and  _376
REMARK  158  A    between atoms: _376  and  _377
REMARK  159  A    between atoms: _377  and  _378
REMARK  160  A    between atoms: _380  and  _382
REMARK  161  A    between atoms: _382  and  _383
REMARK  162  A    between atoms: _382  and  _385
REMARK  163  A    between atoms: _385  and  _386
REMARK  164  A    between atoms: _391  and  _393
REMARK  165  A    between atoms: _393  and  _394
REMARK  166  A    between atoms: _393  and  _396
REMARK  167  A    between atoms: _396  and  _397
REMARK  168  A    between atoms: _400  and  _402
REMARK  169  A    between atoms: _402  and  _403
REMARK  170  A    between atoms: _402  and  _405
REMARK  171  A    between atoms: _405  and  _406
REMARK  172  A    between atoms: _408  and  _410
REMARK  173  A    between atoms: _410  and  _411
REMARK  174  A    between atoms: _410  and  _413
REMARK  175  A    between atoms: _413  and  _414
REMARK                            x       y       z     vdW  Elec       q    Type
REMARK                         _______ _______ _______ _____ _____    ______ ____
ROOT
ATOM      1  O   HOH     1     -12.287 -33.287 -22.906  0.00  0.00    +0.000 OA
ENDROOT
TORSDOF 0
REMARK  Name = ../refined-set-2016/3t0d/3t0d_pocket.pdb
REMARK  175 active torsions:
REMARK  status: ('A' for Active; 'I' for Inactive)
REMARK    1  A    between atoms: _1  and  _3
REMARK    2  A    between atoms: _3  and  _4
REMARK    3  A    between atoms: _3  and  _6
REMARK    4  A    between atoms: _6  and  _7
REMARK    5  A    between atoms: _12  and  _13
REMARK    6  A    between atoms: _15  and  _17
REMARK    7  A    between atoms: _17  and  _18
REMARK    8  A    between atoms: _17  and  _20
REMARK    9  A    between atoms: _20  and  _21
REMARK   10  A    between atoms: _24  and  _26
REMARK   11  A    between atoms: _26  and  _27
REMARK   12  A    between atoms: _26  and  _29
REMARK   13  A    between atoms: _29  and  _30
REMARK   14  A    between atoms: _35  and  _37
REMARK   15  A    between atoms: _37  and  _38
REMARK   16  A    between atoms: _37  and  _40
REMARK   17  A    between atoms: _43  and  _45
REMARK   18  A    between atoms: _45  and  _46
REMARK   19  A    between atoms: _45  and  _48
REMARK   20  A    between atoms: _48  and  _49
REMARK   21  A    between atoms: _52  and  _54
REMARK   22  A    between atoms: _54  and  _55
REMARK   23  A    between atoms: _54  and  _57
REMARK   24  A    between atoms: _57  and  _58
REMARK   25  A    between atoms: _58  and  _59
REMARK   26  A    between atoms: _64  and  _66
REMARK   27  A    between atoms: _66  and  _67
REMARK   28  A    between atoms: _66  and  _69
REMARK   29  A    between atoms: _69  and  _70
REMARK   30  A    between atoms: _73  and  _75
REMARK   31  A    between atoms: _75  and  _76
REMARK   32  A    between atoms: _75  and  _78
REMARK   33  A    between atoms: _78  and  _79
REMARK   34  A    between atoms: _79  and  _80
REMARK   35  A    between atoms: _82  and  _84
REMARK   36  A    between atoms: _84  and  _85
REMARK   37  A    between atoms: _84  and  _87
REMARK   38  A    between atoms: _87  and  _88
REMARK   39  A    between atoms: _88  and  _89
REMARK   40  A    between atoms: _89  and  _90
REMARK   41  A    between atoms: _99  and  _101
REMARK   42  A    between atoms: _101  and  _102
REMARK   43  A    between atoms: _101  and  _104
REMARK   44  A    between atoms: _104  and  _105
REMARK   45  A    between atoms: _110  and  _112
REMARK   46  A    between atoms: _112  and  _113
REMARK   47  A    between atoms: _112  and  _115
REMARK   48  A    between atoms: _115  and  _116
REMARK   49  A    between atoms: _121  and  _123
REMARK   50  A    between atoms: _123  and  _124
REMARK   51  A    between atoms: _123  and  _126
REMARK   52  A    between atoms: _126  and  _127
REMARK   53  A    between atoms: _127  and  _128
REMARK   54  A    between atoms: _128  and  _129
REMARK   55  A    between atoms: _138  and  _140
REMARK   56  A    between atoms: _140  and  _141
REMARK   57  A    between atoms: _140  and  _143
REMARK   58  A    between atoms: _143  and  _144
REMARK   59  A    between atoms: _146  and  _148
REMARK   60  A    between atoms: _148  and  _149
REMARK   61  A    between atoms: _148  and  _151
REMARK   62  A    between atoms: _151  and  _152
REMARK   63  A    between atoms: _157  and  _159
REMARK   64  A    between atoms: _159  and  _160
REMARK   65  A    between atoms: _159  and  _162
REMARK   66  A    between atoms: _162  and  _163
REMARK   67  A    between atoms: _163  and  _164
REMARK   68  A    between atoms: _167  and  _169
REMARK   69  A    between atoms: _169  and  _170
REMARK   70  A    between atoms: _169  and  _172
REMARK   71  A    between atoms: _172  and  _173
REMARK   72  A    between atoms: _173  and  _174
REMARK   73  A    between atoms: _177  and  _179
REMARK   74  A    between atoms: _179  and  _180
REMARK   75  A    between atoms: _179  and  _182
REMARK   76  A    between atoms: _182  and  _183
REMARK   77  A    between atoms: _184  and  MG_424
REMARK   78  A    between atoms: _188  and  _190
REMARK   79  A    between atoms: _190  and  _191
REMARK   80  A    between atoms: _193  and  _195
REMARK   81  A    between atoms: _195  and  _196
REMARK   82  A    between atoms: _195  and  _198
REMARK   83  A    between atoms: _198  and  _199
REMARK   84  A    between atoms: _204  and  _206
REMARK   85  A    between atoms: _206  and  _207
REMARK   86  A    between atoms: _206  and  _209
REMARK   87  A    between atoms: _209  and  _210
REMARK   88  A    between atoms: _210  and  _211
REMARK   89  A    between atoms: _214  and  _216
REMARK   90  A    between atoms: _216  and  _217
REMARK   91  A    between atoms: _216  and  _219
REMARK   92  A    between atoms: _219  and  _220
REMARK   93  A    between atoms: _220  and  _221
REMARK   94  A    between atoms: _224  and  _226
REMARK   95  A    between atoms: _226  and  _227
REMARK   96  A    between atoms: _226  and  _229
REMARK   97  A    between atoms: _229  and  _230
REMARK   98  A    between atoms: _230  and  _231
REMARK   99  A    between atoms: _233  and  _235
REMARK  100  A    between atoms: _235  and  _236
REMARK  101  A    between atoms: _235  and  _238
REMARK  102  A    between atoms: _238  and  _239
REMARK  103  A    between atoms: _244  and  _245
REMARK  104  A    between atoms: _247  and  _249
REMARK  105  A    between atoms: _249  and  _250
REMARK  106  A    between atoms: _249  and  _252
REMARK  107  A    between atoms: _252  and  _253
REMARK  108  A    between atoms: _253  and  _254
REMARK  109  A    between atoms: _254  and  _255
REMARK  110  A    between atoms: _255  and  _256
REMARK  111  A    between atoms: _260  and  _262
REMARK  112  A    between atoms: _262  and  _263
REMARK  113  A    between atoms: _262  and  _265
REMARK  114  A    between atoms: _267  and  _269
REMARK  115  A    between atoms: _269  and  _270
REMARK  116  A    between atoms: _269  and  _272
REMARK  117  A    between atoms: _272  and  _273
REMARK  118  A    between atoms: _273  and  _274
REMARK  119  A    between atoms: _277  and  _279
REMARK  120  A    between atoms: _279  and  _280
REMARK  121  A    between atoms: _279  and  _282
REMARK  122  A    between atoms: _282  and  _283
REMARK  123  A    between atoms: _288  and  _290
REMARK  124  A    between atoms: _290  and  _291
REMARK  125  A    between atoms: _294  and  _296
REMARK  126  A    between atoms: _296  and  _297
REMARK  127  A    between atoms: _296  and  _299
REMARK  128  A    between atoms: _299  and  _300
REMARK  129  A    between atoms: _300  and  _301
REMARK  130  A    between atoms: _303  and  _305
REMARK  131  A    between atoms: _305  and  _306
REMARK  132  A    between atoms: _305  and  _308
REMARK  133  A    between atoms: _308  and  _309
REMARK  134  A    between atoms: _319  and  _321
REMARK  135  A    between atoms: _321  and  _322
REMARK  136  A    between atoms: _321  and  _324
REMARK  137  A    between atoms: _324  and  _325
REMARK  138  A    between atoms: _328  and  _330
REMARK  139  A    between atoms: _330  and  _331
REMARK  140  A    between atoms: _330  and  _333
REMARK  141  A    between atoms: _333  and  _334
REMARK  142  A    between atoms: _334  and  _335
REMARK  143  A    between atoms: _340  and  _342
REMARK  144  A    between atoms: _342  and  _343
REMARK  145  A    between atoms: _342  and  _345
REMARK  146  A    between atoms: _345  and  _346
REMARK  147  A    between atoms: _346  and  _347
REMARK  148  A    between atoms: _352  and  _354
REMARK  149  A    between atoms: _354  and  _355
REMARK  150  A    between atoms: _354  and  _357
REMARK  151  A    between atoms: _357  and  _358
REMARK  152  A    between atoms: _364  and  _366
REMARK  153  A    between atoms: _366  and  _367
REMARK  154  A    between atoms: _366  and  _369
REMARK  155  A    between atoms: _371  and  _373
REMARK  156  A    between atoms: _373  and  _374
REMARK  157  A    between atoms: _373  and  _376
REMARK  158  A    between atoms: _376  and  _377
REMARK  159  A    between atoms: _377  and  _378
REMARK  160  A    between atoms: _380  and  _382
REMARK  161  A    between atoms: _382  and  _383
REMARK  162  A    between atoms: _382  and  _385
REMARK  163  A    between atoms: _385  and  _386
REMARK  164  A    between atoms: _391  and  _393
REMARK  165  A    between atoms: _393  and  _394
REMARK  166  A    between atoms: _393  and  _396
REMARK  167  A    between atoms: _396  and  _397
REMARK  168  A    between atoms: _400  and  _402
REMARK  169  A    between atoms: _402  and  _403
REMARK  170  A    between atoms: _402  and  _405
REMARK  171  A    between atoms: _405  and  _406
REMARK  172  A    between atoms: _408  and  _410
REMARK  173  A    between atoms: _410  and  _411
REMARK  174  A    between atoms: _410  and  _413
REMARK  175  A    between atoms: _413  and  _414
REMARK                            x       y       z     vdW  Elec       q    Type
REMARK                         _______ _______ _______ _____ _____    ______ ____
ROOT
ATOM      1  O   HOH     1     -14.113 -25.458 -20.460  0.00  0.00    +0.000 OA
ENDROOT
TORSDOF 0
REMARK  Name = ../refined-set-2016/3t0d/3t0d_pocket.pdb
REMARK  175 active torsions:
REMARK  status: ('A' for Active; 'I' for Inactive)
REMARK    1  A    between atoms: _1  and  _3
REMARK    2  A    between atoms: _3  and  _4
REMARK    3  A    between atoms: _3  and  _6
REMARK    4  A    between atoms: _6  and  _7
REMARK    5  A    between atoms: _12  and  _13
REMARK    6  A    between atoms: _15  and  _17
REMARK    7  A    between atoms: _17  and  _18
REMARK    8  A    between atoms: _17  and  _20
REMARK    9  A    between atoms: _20  and  _21
REMARK   10  A    between atoms: _24  and  _26
REMARK   11  A    between atoms: _26  and  _27
REMARK   12  A    between atoms: _26  and  _29
REMARK   13  A    between atoms: _29  and  _30
REMARK   14  A    between atoms: _35  and  _37
REMARK   15  A    between atoms: _37  and  _38
REMARK   16  A    between atoms: _37  and  _40
REMARK   17  A    between atoms: _43  and  _45
REMARK   18  A    between atoms: _45  and  _46
REMARK   19  A    between atoms: _45  and  _48
REMARK   20  A    between atoms: _48  and  _49
REMARK   21  A    between atoms: _52  and  _54
REMARK   22  A    between atoms: _54  and  _55
REMARK   23  A    between atoms: _54  and  _57
REMARK   24  A    between atoms: _57  and  _58
REMARK   25  A    between atoms: _58  and  _59
REMARK   26  A    between atoms: _64  and  _66
REMARK   27  A    between atoms: _66  and  _67
REMARK   28  A    between atoms: _66  and  _69
REMARK   29  A    between atoms: _69  and  _70
REMARK   30  A    between atoms: _73  and  _75
REMARK   31  A    between atoms: _75  and  _76
REMARK   32  A    between atoms: _75  and  _78
REMARK   33  A    between atoms: _78  and  _79
REMARK   34  A    between atoms: _79  and  _80
REMARK   35  A    between atoms: _82  and  _84
REMARK   36  A    between atoms: _84  and  _85
REMARK   37  A    between atoms: _84  and  _87
REMARK   38  A    between atoms: _87  and  _88
REMARK   39  A    between atoms: _88  and  _89
REMARK   40  A    between atoms: _89  and  _90
REMARK   41  A    between atoms: _99  and  _101
REMARK   42  A    between atoms: _101  and  _102
REMARK   43  A    between atoms: _101  and  _104
REMARK   44  A    between atoms: _104  and  _105
REMARK   45  A    between atoms: _110  and  _112
REMARK   46  A    between atoms: _112  and  _113
REMARK   47  A    between atoms: _112  and  _115
REMARK   48  A    between atoms: _115  and  _116
REMARK   49  A    between atoms: _121  and  _123
REMARK   50  A    between atoms: _123  and  _124
REMARK   51  A    between atoms: _123  and  _126
REMARK   52  A    between atoms: _126  and  _127
REMARK   53  A    between atoms: _127  and  _128
REMARK   54  A    between atoms: _128  and  _129
REMARK   55  A    between atoms: _138  and  _140
REMARK   56  A    between atoms: _140  and  _141
REMARK   57  A    between atoms: _140  and  _143
REMARK   58  A    between atoms: _143  and  _144
REMARK   59  A    between atoms: _146  and  _148
REMARK   60  A    between atoms: _148  and  _149
REMARK   61  A    between atoms: _148  and  _151
REMARK   62  A    between atoms: _151  and  _152
REMARK   63  A    between atoms: _157  and  _159
REMARK   64  A    between atoms: _159  and  _160
REMARK   65  A    between atoms: _159  and  _162
REMARK   66  A    between atoms: _162  and  _163
REMARK   67  A    between atoms: _163  and  _164
REMARK   68  A    between atoms: _167  and  _169
REMARK   69  A    between atoms: _169  and  _170
REMARK   70  A    between atoms: _169  and  _172
REMARK   71  A    between atoms: _172  and  _173
REMARK   72  A    between atoms: _173  and  _174
REMARK   73  A    between atoms: _177  and  _179
REMARK   74  A    between atoms: _179  and  _180
REMARK   75  A    between atoms: _179  and  _182
REMARK   76  A    between atoms: _182  and  _183
REMARK   77  A    between atoms: _184  and  MG_424
REMARK   78  A    between atoms: _188  and  _190
REMARK   79  A    between atoms: _190  and  _191
REMARK   80  A    between atoms: _193  and  _195
REMARK   81  A    between atoms: _195  and  _196
REMARK   82  A    between atoms: _195  and  _198
REMARK   83  A    between atoms: _198  and  _199
REMARK   84  A    between atoms: _204  and  _206
REMARK   85  A    between atoms: _206  and  _207
REMARK   86  A    between atoms: _206  and  _209
REMARK   87  A    between atoms: _209  and  _210
REMARK   88  A    between atoms: _210  and  _211
REMARK   89  A    between atoms: _214  and  _216
REMARK   90  A    between atoms: _216  and  _217
REMARK   91  A    between atoms: _216  and  _219
REMARK   92  A    between atoms: _219  and  _220
REMARK   93  A    between atoms: _220  and  _221
REMARK   94  A    between atoms: _224  and  _226
REMARK   95  A    between atoms: _226  and  _227
REMARK   96  A    between atoms: _226  and  _229
REMARK   97  A    between atoms: _229  and  _230
REMARK   98  A    between atoms: _230  and  _231
REMARK   99  A    between atoms: _233  and  _235
REMARK  100  A    between atoms: _235  and  _236
REMARK  101  A    between atoms: _235  and  _238
REMARK  102  A    between atoms: _238  and  _239
REMARK  103  A    between atoms: _244  and  _245
REMARK  104  A    between atoms: _247  and  _249
REMARK  105  A    between atoms: _249  and  _250
REMARK  106  A    between atoms: _249  and  _252
REMARK  107  A    between atoms: _252  and  _253
REMARK  108  A    between atoms: _253  and  _254
REMARK  109  A    between atoms: _254  and  _255
REMARK  110  A    between atoms: _255  and  _256
REMARK  111  A    between atoms: _260  and  _262
REMARK  112  A    between atoms: _262  and  _263
REMARK  113  A    between atoms: _262  and  _265
REMARK  114  A    between atoms: _267  and  _269
REMARK  115  A    between atoms: _269  and  _270
REMARK  116  A    between atoms: _269  and  _272
REMARK  117  A    between atoms: _272  and  _273
REMARK  118  A    between atoms: _273  and  _274
REMARK  119  A    between atoms: _277  and  _279
REMARK  120  A    between atoms: _279  and  _280
REMARK  121  A    between atoms: _279  and  _282
REMARK  122  A    between atoms: _282  and  _283
REMARK  123  A    between atoms: _288  and  _290
REMARK  124  A    between atoms: _290  and  _291
REMARK  125  A    between atoms: _294  and  _296
REMARK  126  A    between atoms: _296  and  _297
REMARK  127  A    between atoms: _296  and  _299
REMARK  128  A    between atoms: _299  and  _300
REMARK  129  A    between atoms: _300  and  _301
REMARK  130  A    between atoms: _303  and  _305
REMARK  131  A    between atoms: _305  and  _306
REMARK  132  A    between atoms: _305  and  _308
REMARK  133  A    between atoms: _308  and  _309
REMARK  134  A    between atoms: _319  and  _321
REMARK  135  A    between atoms: _321  and  _322
REMARK  136  A    between atoms: _321  and  _324
REMARK  137  A    between atoms: _324  and  _325
REMARK  138  A    between atoms: _328  and  _330
REMARK  139  A    between atoms: _330  and  _331
REMARK  140  A    between atoms: _330  and  _333
REMARK  141  A    between atoms: _333  and  _334
REMARK  142  A    between atoms: _334  and  _335
REMARK  143  A    between atoms: _340  and  _342
REMARK  144  A    between atoms: _342  and  _343
REMARK  145  A    between atoms: _342  and  _345
REMARK  146  A    between atoms: _345  and  _346
REMARK  147  A    between atoms: _346  and  _347
REMARK  148  A    between atoms: _352  and  _354
REMARK  149  A    between atoms: _354  and  _355
REMARK  150  A    between atoms: _354  and  _357
REMARK  151  A    between atoms: _357  and  _358
REMARK  152  A    between atoms: _364  and  _366
REMARK  153  A    between atoms: _366  and  _367
REMARK  154  A    between atoms: _366  and  _369
REMARK  155  A    between atoms: _371  and  _373
REMARK  156  A    between atoms: _373  and  _374
REMARK  157  A    between atoms: _373  and  _376
REMARK  158  A    between atoms: _376  and  _377
REMARK  159  A    between atoms: _377  and  _378
REMARK  160  A    between atoms: _380  and  _382
REMARK  161  A    between atoms: _382  and  _383
REMARK  162  A    between atoms: _382  and  _385
REMARK  163  A    between atoms: _385  and  _386
REMARK  164  A    between atoms: _391  and  _393
REMARK  165  A    between atoms: _393  and  _394
REMARK  166  A    between atoms: _393  and  _396
REMARK  167  A    between atoms: _396  and  _397
REMARK  168  A    between atoms: _400  and  _402
REMARK  169  A    between atoms: _402  and  _403
REMARK  170  A    between atoms: _402  and  _405
REMARK  171  A    between atoms: _405  and  _406
REMARK  172  A    between atoms: _408  and  _410
REMARK  173  A    between atoms: _410  and  _411
REMARK  174  A    between atoms: _410  and  _413
REMARK  175  A    between atoms: _413  and  _414
REMARK                            x       y       z     vdW  Elec       q    Type
REMARK                         _______ _______ _______ _____ _____    ______ ____
ROOT
ATOM      1  O   HOH     1     -17.879 -28.157 -20.745  0.00  0.00    +0.000 OA
ENDROOT
TORSDOF 0
REMARK  Name = ../refined-set-2016/3t0d/3t0d_pocket.pdb
REMARK  175 active torsions:
REMARK  status: ('A' for Active; 'I' for Inactive)
REMARK    1  A    between atoms: _1  and  _3
REMARK    2  A    between atoms: _3  and  _4
REMARK    3  A    between atoms: _3  and  _6
REMARK    4  A    between atoms: _6  and  _7
REMARK    5  A    between atoms: _12  and  _13
REMARK    6  A    between atoms: _15  and  _17
REMARK    7  A    between atoms: _17  and  _18
REMARK    8  A    between atoms: _17  and  _20
REMARK    9  A    between atoms: _20  and  _21
REMARK   10  A    between atoms: _24  and  _26
REMARK   11  A    between atoms: _26  and  _27
REMARK   12  A    between atoms: _26  and  _29
REMARK   13  A    between atoms: _29  and  _30
REMARK   14  A    between atoms: _35  and  _37
REMARK   15  A    between atoms: _37  and  _38
REMARK   16  A    between atoms: _37  and  _40
REMARK   17  A    between atoms: _43  and  _45
REMARK   18  A    between atoms: _45  and  _46
REMARK   19  A    between atoms: _45  and  _48
REMARK   20  A    between atoms: _48  and  _49
REMARK   21  A    between atoms: _52  and  _54
REMARK   22  A    between atoms: _54  and  _55
REMARK   23  A    between atoms: _54  and  _57
REMARK   24  A    between atoms: _57  and  _58
REMARK   25  A    between atoms: _58  and  _59
REMARK   26  A    between atoms: _64  and  _66
REMARK   27  A    between atoms: _66  and  _67
REMARK   28  A    between atoms: _66  and  _69
REMARK   29  A    between atoms: _69  and  _70
REMARK   30  A    between atoms: _73  and  _75
REMARK   31  A    between atoms: _75  and  _76
REMARK   32  A    between atoms: _75  and  _78
REMARK   33  A    between atoms: _78  and  _79
REMARK   34  A    between atoms: _79  and  _80
REMARK   35  A    between atoms: _82  and  _84
REMARK   36  A    between atoms: _84  and  _85
REMARK   37  A    between atoms: _84  and  _87
REMARK   38  A    between atoms: _87  and  _88
REMARK   39  A    between atoms: _88  and  _89
REMARK   40  A    between atoms: _89  and  _90
REMARK   41  A    between atoms: _99  and  _101
REMARK   42  A    between atoms: _101  and  _102
REMARK   43  A    between atoms: _101  and  _104
REMARK   44  A    between atoms: _104  and  _105
REMARK   45  A    between atoms: _110  and  _112
REMARK   46  A    between atoms: _112  and  _113
REMARK   47  A    between atoms: _112  and  _115
REMARK   48  A    between atoms: _115  and  _116
REMARK   49  A    between atoms: _121  and  _123
REMARK   50  A    between atoms: _123  and  _124
REMARK   51  A    between atoms: _123  and  _126
REMARK   52  A    between atoms: _126  and  _127
REMARK   53  A    between atoms: _127  and  _128
REMARK   54  A    between atoms: _128  and  _129
REMARK   55  A    between atoms: _138  and  _140
REMARK   56  A    between atoms: _140  and  _141
REMARK   57  A    between atoms: _140  and  _143
REMARK   58  A    between atoms: _143  and  _144
REMARK   59  A    between atoms: _146  and  _148
REMARK   60  A    between atoms: _148  and  _149
REMARK   61  A    between atoms: _148  and  _151
REMARK   62  A    between atoms: _151  and  _152
REMARK   63  A    between atoms: _157  and  _159
REMARK   64  A    between atoms: _159  and  _160
REMARK   65  A    between atoms: _159  and  _162
REMARK   66  A    between atoms: _162  and  _163
REMARK   67  A    between atoms: _163  and  _164
REMARK   68  A    between atoms: _167  and  _169
REMARK   69  A    between atoms: _169  and  _170
REMARK   70  A    between atoms: _169  and  _172
REMARK   71  A    between atoms: _172  and  _173
REMARK   72  A    between atoms: _173  and  _174
REMARK   73  A    between atoms: _177  and  _179
REMARK   74  A    between atoms: _179  and  _180
REMARK   75  A    between atoms: _179  and  _182
REMARK   76  A    between atoms: _182  and  _183
REMARK   77  A    between atoms: _184  and  MG_424
REMARK   78  A    between atoms: _188  and  _190
REMARK   79  A    between atoms: _190  and  _191
REMARK   80  A    between atoms: _193  and  _195
REMARK   81  A    between atoms: _195  and  _196
REMARK   82  A    between atoms: _195  and  _198
REMARK   83  A    between atoms: _198  and  _199
REMARK   84  A    between atoms: _204  and  _206
REMARK   85  A    between atoms: _206  and  _207
REMARK   86  A    between atoms: _206  and  _209
REMARK   87  A    between atoms: _209  and  _210
REMARK   88  A    between atoms: _210  and  _211
REMARK   89  A    between atoms: _214  and  _216
REMARK   90  A    between atoms: _216  and  _217
REMARK   91  A    between atoms: _216  and  _219
REMARK   92  A    between atoms: _219  and  _220
REMARK   93  A    between atoms: _220  and  _221
REMARK   94  A    between atoms: _224  and  _226
REMARK   95  A    between atoms: _226  and  _227
REMARK   96  A    between atoms: _226  and  _229
REMARK   97  A    between atoms: _229  and  _230
REMARK   98  A    between atoms: _230  and  _231
REMARK   99  A    between atoms: _233  and  _235
REMARK  100  A    between atoms: _235  and  _236
REMARK  101  A    between atoms: _235  and  _238
REMARK  102  A    between atoms: _238  and  _239
REMARK  103  A    between atoms: _244  and  _245
REMARK  104  A    between atoms: _247  and  _249
REMARK  105  A    between atoms: _249  and  _250
REMARK  106  A    between atoms: _249  and  _252
REMARK  107  A    between atoms: _252  and  _253
REMARK  108  A    between atoms: _253  and  _254
REMARK  109  A    between atoms: _254  and  _255
REMARK  110  A    between atoms: _255  and  _256
REMARK  111  A    between atoms: _260  and  _262
REMARK  112  A    between atoms: _262  and  _263
REMARK  113  A    between atoms: _262  and  _265
REMARK  114  A    between atoms: _267  and  _269
REMARK  115  A    between atoms: _269  and  _270
REMARK  116  A    between atoms: _269  and  _272
REMARK  117  A    between atoms: _272  and  _273
REMARK  118  A    between atoms: _273  and  _274
REMARK  119  A    between atoms: _277  and  _279
REMARK  120  A    between atoms: _279  and  _280
REMARK  121  A    between atoms: _279  and  _282
REMARK  122  A    between atoms: _282  and  _283
REMARK  123  A    between atoms: _288  and  _290
REMARK  124  A    between atoms: _290  and  _291
REMARK  125  A    between atoms: _294  and  _296
REMARK  126  A    between atoms: _296  and  _297
REMARK  127  A    between atoms: _296  and  _299
REMARK  128  A    between atoms: _299  and  _300
REMARK  129  A    between atoms: _300  and  _301
REMARK  130  A    between atoms: _303  and  _305
REMARK  131  A    between atoms: _305  and  _306
REMARK  132  A    between atoms: _305  and  _308
REMARK  133  A    between atoms: _308  and  _309
REMARK  134  A    between atoms: _319  and  _321
REMARK  135  A    between atoms: _321  and  _322
REMARK  136  A    between atoms: _321  and  _324
REMARK  137  A    between atoms: _324  and  _325
REMARK  138  A    between atoms: _328  and  _330
REMARK  139  A    between atoms: _330  and  _331
REMARK  140  A    between atoms: _330  and  _333
REMARK  141  A    between atoms: _333  and  _334
REMARK  142  A    between atoms: _334  and  _335
REMARK  143  A    between atoms: _340  and  _342
REMARK  144  A    between atoms: _342  and  _343
REMARK  145  A    between atoms: _342  and  _345
REMARK  146  A    between atoms: _345  and  _346
REMARK  147  A    between atoms: _346  and  _347
REMARK  148  A    between atoms: _352  and  _354
REMARK  149  A    between atoms: _354  and  _355
REMARK  150  A    between atoms: _354  and  _357
REMARK  151  A    between atoms: _357  and  _358
REMARK  152  A    between atoms: _364  and  _366
REMARK  153  A    between atoms: _366  and  _367
REMARK  154  A    between atoms: _366  and  _369
REMARK  155  A    between atoms: _371  and  _373
REMARK  156  A    between atoms: _373  and  _374
REMARK  157  A    between atoms: _373  and  _376
REMARK  158  A    between atoms: _376  and  _377
REMARK  159  A    between atoms: _377  and  _378
REMARK  160  A    between atoms: _380  and  _382
REMARK  161  A    between atoms: _382  and  _383
REMARK  162  A    between atoms: _382  and  _385
REMARK  163  A    between atoms: _385  and  _386
REMARK  164  A    between atoms: _391  and  _393
REMARK  165  A    between atoms: _393  and  _394
REMARK  166  A    between atoms: _393  and  _396
REMARK  167  A    between atoms: _396  and  _397
REMARK  168  A    between atoms: _400  and  _402
REMARK  169  A    between atoms: _402  and  _403
REMARK  170  A    between atoms: _402  and  _405
REMARK  171  A    between atoms: _405  and  _406
REMARK  172  A    between atoms: _408  and  _410
REMARK  173  A    between atoms: _410  and  _411
REMARK  174  A    between atoms: _410  and  _413
REMARK  175  A    between atoms: _413  and  _414
REMARK                            x       y       z     vdW  Elec       q    Type
REMARK                         _______ _______ _______ _____ _____    ______ ____
ROOT
ATOM      1  O   HOH     1     -18.364 -22.099 -24.991  0.00  0.00    +0.000 OA
ENDROOT
TORSDOF 0
REMARK  Name = ../refined-set-2016/3t0d/3t0d_pocket.pdb
REMARK  175 active torsions:
REMARK  status: ('A' for Active; 'I' for Inactive)
REMARK    1  A    between atoms: _1  and  _3
REMARK    2  A    between atoms: _3  and  _4
REMARK    3  A    between atoms: _3  and  _6
REMARK    4  A    between atoms: _6  and  _7
REMARK    5  A    between atoms: _12  and  _13
REMARK    6  A    between atoms: _15  and  _17
REMARK    7  A    between atoms: _17  and  _18
REMARK    8  A    between atoms: _17  and  _20
REMARK    9  A    between atoms: _20  and  _21
REMARK   10  A    between atoms: _24  and  _26
REMARK   11  A    between atoms: _26  and  _27
REMARK   12  A    between atoms: _26  and  _29
REMARK   13  A    between atoms: _29  and  _30
REMARK   14  A    between atoms: _35  and  _37
REMARK   15  A    between atoms: _37  and  _38
REMARK   16  A    between atoms: _37  and  _40
REMARK   17  A    between atoms: _43  and  _45
REMARK   18  A    between atoms: _45  and  _46
REMARK   19  A    between atoms: _45  and  _48
REMARK   20  A    between atoms: _48  and  _49
REMARK   21  A    between atoms: _52  and  _54
REMARK   22  A    between atoms: _54  and  _55
REMARK   23  A    between atoms: _54  and  _57
REMARK   24  A    between atoms: _57  and  _58
REMARK   25  A    between atoms: _58  and  _59
REMARK   26  A    between atoms: _64  and  _66
REMARK   27  A    between atoms: _66  and  _67
REMARK   28  A    between atoms: _66  and  _69
REMARK   29  A    between atoms: _69  and  _70
REMARK   30  A    between atoms: _73  and  _75
REMARK   31  A    between atoms: _75  and  _76
REMARK   32  A    between atoms: _75  and  _78
REMARK   33  A    between atoms: _78  and  _79
REMARK   34  A    between atoms: _79  and  _80
REMARK   35  A    between atoms: _82  and  _84
REMARK   36  A    between atoms: _84  and  _85
REMARK   37  A    between atoms: _84  and  _87
REMARK   38  A    between atoms: _87  and  _88
REMARK   39  A    between atoms: _88  and  _89
REMARK   40  A    between atoms: _89  and  _90
REMARK   41  A    between atoms: _99  and  _101
REMARK   42  A    between atoms: _101  and  _102
REMARK   43  A    between atoms: _101  and  _104
REMARK   44  A    between atoms: _104  and  _105
REMARK   45  A    between atoms: _110  and  _112
REMARK   46  A    between atoms: _112  and  _113
REMARK   47  A    between atoms: _112  and  _115
REMARK   48  A    between atoms: _115  and  _116
REMARK   49  A    between atoms: _121  and  _123
REMARK   50  A    between atoms: _123  and  _124
REMARK   51  A    between atoms: _123  and  _126
REMARK   52  A    between atoms: _126  and  _127
REMARK   53  A    between atoms: _127  and  _128
REMARK   54  A    between atoms: _128  and  _129
REMARK   55  A    between atoms: _138  and  _140
REMARK   56  A    between atoms: _140  and  _141
REMARK   57  A    between atoms: _140  and  _143
REMARK   58  A    between atoms: _143  and  _144
REMARK   59  A    between atoms: _146  and  _148
REMARK   60  A    between atoms: _148  and  _149
REMARK   61  A    between atoms: _148  and  _151
REMARK   62  A    between atoms: _151  and  _152
REMARK   63  A    between atoms: _157  and  _159
REMARK   64  A    between atoms: _159  and  _160
REMARK   65  A    between atoms: _159  and  _162
REMARK   66  A    between atoms: _162  and  _163
REMARK   67  A    between atoms: _163  and  _164
REMARK   68  A    between atoms: _167  and  _169
REMARK   69  A    between atoms: _169  and  _170
REMARK   70  A    between atoms: _169  and  _172
REMARK   71  A    between atoms: _172  and  _173
REMARK   72  A    between atoms: _173  and  _174
REMARK   73  A    between atoms: _177  and  _179
REMARK   74  A    between atoms: _179  and  _180
REMARK   75  A    between atoms: _179  and  _182
REMARK   76  A    between atoms: _182  and  _183
REMARK   77  A    between atoms: _184  and  MG_424
REMARK   78  A    between atoms: _188  and  _190
REMARK   79  A    between atoms: _190  and  _191
REMARK   80  A    between atoms: _193  and  _195
REMARK   81  A    between atoms: _195  and  _196
REMARK   82  A    between atoms: _195  and  _198
REMARK   83  A    between atoms: _198  and  _199
REMARK   84  A    between atoms: _204  and  _206
REMARK   85  A    between atoms: _206  and  _207
REMARK   86  A    between atoms: _206  and  _209
REMARK   87  A    between atoms: _209  and  _210
REMARK   88  A    between atoms: _210  and  _211
REMARK   89  A    between atoms: _214  and  _216
REMARK   90  A    between atoms: _216  and  _217
REMARK   91  A    between atoms: _216  and  _219
REMARK   92  A    between atoms: _219  and  _220
REMARK   93  A    between atoms: _220  and  _221
REMARK   94  A    between atoms: _224  and  _226
REMARK   95  A    between atoms: _226  and  _227
REMARK   96  A    between atoms: _226  and  _229
REMARK   97  A    between atoms: _229  and  _230
REMARK   98  A    between atoms: _230  and  _231
REMARK   99  A    between atoms: _233  and  _235
REMARK  100  A    between atoms: _235  and  _236
REMARK  101  A    between atoms: _235  and  _238
REMARK  102  A    between atoms: _238  and  _239
REMARK  103  A    between atoms: _244  and  _245
REMARK  104  A    between atoms: _247  and  _249
REMARK  105  A    between atoms: _249  and  _250
REMARK  106  A    between atoms: _249  and  _252
REMARK  107  A    between atoms: _252  and  _253
REMARK  108  A    between atoms: _253  and  _254
REMARK  109  A    between atoms: _254  and  _255
REMARK  110  A    between atoms: _255  and  _256
REMARK  111  A    between atoms: _260  and  _262
REMARK  112  A    between atoms: _262  and  _263
REMARK  113  A    between atoms: _262  and  _265
REMARK  114  A    between atoms: _267  and  _269
REMARK  115  A    between atoms: _269  and  _270
REMARK  116  A    between atoms: _269  and  _272
REMARK  117  A    between atoms: _272  and  _273
REMARK  118  A    between atoms: _273  and  _274
REMARK  119  A    between atoms: _277  and  _279
REMARK  120  A    between atoms: _279  and  _280
REMARK  121  A    between atoms: _279  and  _282
REMARK  122  A    between atoms: _282  and  _283
REMARK  123  A    between atoms: _288  and  _290
REMARK  124  A    between atoms: _290  and  _291
REMARK  125  A    between atoms: _294  and  _296
REMARK  126  A    between atoms: _296  and  _297
REMARK  127  A    between atoms: _296  and  _299
REMARK  128  A    between atoms: _299  and  _300
REMARK  129  A    between atoms: _300  and  _301
REMARK  130  A    between atoms: _303  and  _305
REMARK  131  A    between atoms: _305  and  _306
REMARK  132  A    between atoms: _305  and  _308
REMARK  133  A    between atoms: _308  and  _309
REMARK  134  A    between atoms: _319  and  _321
REMARK  135  A    between atoms: _321  and  _322
REMARK  136  A    between atoms: _321  and  _324
REMARK  137  A    between atoms: _324  and  _325
REMARK  138  A    between atoms: _328  and  _330
REMARK  139  A    between atoms: _330  and  _331
REMARK  140  A    between atoms: _330  and  _333
REMARK  141  A    between atoms: _333  and  _334
REMARK  142  A    between atoms: _334  and  _335
REMARK  143  A    between atoms: _340  and  _342
REMARK  144  A    between atoms: _342  and  _343
REMARK  145  A    between atoms: _342  and  _345
REMARK  146  A    between atoms: _345  and  _346
REMARK  147  A    between atoms: _346  and  _347
REMARK  148  A    between atoms: _352  and  _354
REMARK  149  A    between atoms: _354  and  _355
REMARK  150  A    between atoms: _354  and  _357
REMARK  151  A    between atoms: _357  and  _358
REMARK  152  A    between atoms: _364  and  _366
REMARK  153  A    between atoms: _366  and  _367
REMARK  154  A    between atoms: _366  and  _369
REMARK  155  A    between atoms: _371  and  _373
REMARK  156  A    between atoms: _373  and  _374
REMARK  157  A    between atoms: _373  and  _376
REMARK  158  A    between atoms: _376  and  _377
REMARK  159  A    between atoms: _377  and  _378
REMARK  160  A    between atoms: _380  and  _382
REMARK  161  A    between atoms: _382  and  _383
REMARK  162  A    between atoms: _382  and  _385
REMARK  163  A    between atoms: _385  and  _386
REMARK  164  A    between atoms: _391  and  _393
REMARK  165  A    between atoms: _393  and  _394
REMARK  166  A    between atoms: _393  and  _396
REMARK  167  A    between atoms: _396  and  _397
REMARK  168  A    between atoms: _400  and  _402
REMARK  169  A    between atoms: _402  and  _403
REMARK  170  A    between atoms: _402  and  _405
REMARK  171  A    between atoms: _405  and  _406
REMARK  172  A    between atoms: _408  and  _410
REMARK  173  A    between atoms: _410  and  _411
REMARK  174  A    between atoms: _410  and  _413
REMARK  175  A    between atoms: _413  and  _414
REMARK                            x       y       z     vdW  Elec       q    Type
REMARK                         _______ _______ _______ _____ _____    ______ ____
ROOT
ATOM      1  O   HOH     1      -3.790 -29.296 -29.938  0.00  0.00    +0.000 OA
ENDROOT
TORSDOF 0
REMARK  Name = ../refined-set-2016/3t0d/3t0d_pocket.pdb
REMARK  175 active torsions:
REMARK  status: ('A' for Active; 'I' for Inactive)
REMARK    1  A    between atoms: _1  and  _3
REMARK    2  A    between atoms: _3  and  _4
REMARK    3  A    between atoms: _3  and  _6
REMARK    4  A    between atoms: _6  and  _7
REMARK    5  A    between atoms: _12  and  _13
REMARK    6  A    between atoms: _15  and  _17
REMARK    7  A    between atoms: _17  and  _18
REMARK    8  A    between atoms: _17  and  _20
REMARK    9  A    between atoms: _20  and  _21
REMARK   10  A    between atoms: _24  and  _26
REMARK   11  A    between atoms: _26  and  _27
REMARK   12  A    between atoms: _26  and  _29
REMARK   13  A    between atoms: _29  and  _30
REMARK   14  A    between atoms: _35  and  _37
REMARK   15  A    between atoms: _37  and  _38
REMARK   16  A    between atoms: _37  and  _40
REMARK   17  A    between atoms: _43  and  _45
REMARK   18  A    between atoms: _45  and  _46
REMARK   19  A    between atoms: _45  and  _48
REMARK   20  A    between atoms: _48  and  _49
REMARK   21  A    between atoms: _52  and  _54
REMARK   22  A    between atoms: _54  and  _55
REMARK   23  A    between atoms: _54  and  _57
REMARK   24  A    between atoms: _57  and  _58
REMARK   25  A    between atoms: _58  and  _59
REMARK   26  A    between atoms: _64  and  _66
REMARK   27  A    between atoms: _66  and  _67
REMARK   28  A    between atoms: _66  and  _69
REMARK   29  A    between atoms: _69  and  _70
REMARK   30  A    between atoms: _73  and  _75
REMARK   31  A    between atoms: _75  and  _76
REMARK   32  A    between atoms: _75  and  _78
REMARK   33  A    between atoms: _78  and  _79
REMARK   34  A    between atoms: _79  and  _80
REMARK   35  A    between atoms: _82  and  _84
REMARK   36  A    between atoms: _84  and  _85
REMARK   37  A    between atoms: _84  and  _87
REMARK   38  A    between atoms: _87  and  _88
REMARK   39  A    between atoms: _88  and  _89
REMARK   40  A    between atoms: _89  and  _90
REMARK   41  A    between atoms: _99  and  _101
REMARK   42  A    between atoms: _101  and  _102
REMARK   43  A    between atoms: _101  and  _104
REMARK   44  A    between atoms: _104  and  _105
REMARK   45  A    between atoms: _110  and  _112
REMARK   46  A    between atoms: _112  and  _113
REMARK   47  A    between atoms: _112  and  _115
REMARK   48  A    between atoms: _115  and  _116
REMARK   49  A    between atoms: _121  and  _123
REMARK   50  A    between atoms: _123  and  _124
REMARK   51  A    between atoms: _123  and  _126
REMARK   52  A    between atoms: _126  and  _127
REMARK   53  A    between atoms: _127  and  _128
REMARK   54  A    between atoms: _128  and  _129
REMARK   55  A    between atoms: _138  and  _140
REMARK   56  A    between atoms: _140  and  _141
REMARK   57  A    between atoms: _140  and  _143
REMARK   58  A    between atoms: _143  and  _144
REMARK   59  A    between atoms: _146  and  _148
REMARK   60  A    between atoms: _148  and  _149
REMARK   61  A    between atoms: _148  and  _151
REMARK   62  A    between atoms: _151  and  _152
REMARK   63  A    between atoms: _157  and  _159
REMARK   64  A    between atoms: _159  and  _160
REMARK   65  A    between atoms: _159  and  _162
REMARK   66  A    between atoms: _162  and  _163
REMARK   67  A    between atoms: _163  and  _164
REMARK   68  A    between atoms: _167  and  _169
REMARK   69  A    between atoms: _169  and  _170
REMARK   70  A    between atoms: _169  and  _172
REMARK   71  A    between atoms: _172  and  _173
REMARK   72  A    between atoms: _173  and  _174
REMARK   73  A    between atoms: _177  and  _179
REMARK   74  A    between atoms: _179  and  _180
REMARK   75  A    between atoms: _179  and  _182
REMARK   76  A    between atoms: _182  and  _183
REMARK   77  A    between atoms: _184  and  MG_424
REMARK   78  A    between atoms: _188  and  _190
REMARK   79  A    between atoms: _190  and  _191
REMARK   80  A    between atoms: _193  and  _195
REMARK   81  A    between atoms: _195  and  _196
REMARK   82  A    between atoms: _195  and  _198
REMARK   83  A    between atoms: _198  and  _199
REMARK   84  A    between atoms: _204  and  _206
REMARK   85  A    between atoms: _206  and  _207
REMARK   86  A    between atoms: _206  and  _209
REMARK   87  A    between atoms: _209  and  _210
REMARK   88  A    between atoms: _210  and  _211
REMARK   89  A    between atoms: _214  and  _216
REMARK   90  A    between atoms: _216  and  _217
REMARK   91  A    between atoms: _216  and  _219
REMARK   92  A    between atoms: _219  and  _220
REMARK   93  A    between atoms: _220  and  _221
REMARK   94  A    between atoms: _224  and  _226
REMARK   95  A    between atoms: _226  and  _227
REMARK   96  A    between atoms: _226  and  _229
REMARK   97  A    between atoms: _229  and  _230
REMARK   98  A    between atoms: _230  and  _231
REMARK   99  A    between atoms: _233  and  _235
REMARK  100  A    between atoms: _235  and  _236
REMARK  101  A    between atoms: _235  and  _238
REMARK  102  A    between atoms: _238  and  _239
REMARK  103  A    between atoms: _244  and  _245
REMARK  104  A    between atoms: _247  and  _249
REMARK  105  A    between atoms: _249  and  _250
REMARK  106  A    between atoms: _249  and  _252
REMARK  107  A    between atoms: _252  and  _253
REMARK  108  A    between atoms: _253  and  _254
REMARK  109  A    between atoms: _254  and  _255
REMARK  110  A    between atoms: _255  and  _256
REMARK  111  A    between atoms: _260  and  _262
REMARK  112  A    between atoms: _262  and  _263
REMARK  113  A    between atoms: _262  and  _265
REMARK  114  A    between atoms: _267  and  _269
REMARK  115  A    between atoms: _269  and  _270
REMARK  116  A    between atoms: _269  and  _272
REMARK  117  A    between atoms: _272  and  _273
REMARK  118  A    between atoms: _273  and  _274
REMARK  119  A    between atoms: _277  and  _279
REMARK  120  A    between atoms: _279  and  _280
REMARK  121  A    between atoms: _279  and  _282
REMARK  122  A    between atoms: _282  and  _283
REMARK  123  A    between atoms: _288  and  _290
REMARK  124  A    between atoms: _290  and  _291
REMARK  125  A    between atoms: _294  and  _296
REMARK  126  A    between atoms: _296  and  _297
REMARK  127  A    between atoms: _296  and  _299
REMARK  128  A    between atoms: _299  and  _300
REMARK  129  A    between atoms: _300  and  _301
REMARK  130  A    between atoms: _303  and  _305
REMARK  131  A    between atoms: _305  and  _306
REMARK  132  A    between atoms: _305  and  _308
REMARK  133  A    between atoms: _308  and  _309
REMARK  134  A    between atoms: _319  and  _321
REMARK  135  A    between atoms: _321  and  _322
REMARK  136  A    between atoms: _321  and  _324
REMARK  137  A    between atoms: _324  and  _325
REMARK  138  A    between atoms: _328  and  _330
REMARK  139  A    between atoms: _330  and  _331
REMARK  140  A    between atoms: _330  and  _333
REMARK  141  A    between atoms: _333  and  _334
REMARK  142  A    between atoms: _334  and  _335
REMARK  143  A    between atoms: _340  and  _342
REMARK  144  A    between atoms: _342  and  _343
REMARK  145  A    between atoms: _342  and  _345
REMARK  146  A    between atoms: _345  and  _346
REMARK  147  A    between atoms: _346  and  _347
REMARK  148  A    between atoms: _352  and  _354
REMARK  149  A    between atoms: _354  and  _355
REMARK  150  A    between atoms: _354  and  _357
REMARK  151  A    between atoms: _357  and  _358
REMARK  152  A    between atoms: _364  and  _366
REMARK  153  A    between atoms: _366  and  _367
REMARK  154  A    between atoms: _366  and  _369
REMARK  155  A    between atoms: _371  and  _373
REMARK  156  A    between atoms: _373  and  _374
REMARK  157  A    between atoms: _373  and  _376
REMARK  158  A    between atoms: _376  and  _377
REMARK  159  A    between atoms: _377  and  _378
REMARK  160  A    between atoms: _380  and  _382
REMARK  161  A    between atoms: _382  and  _383
REMARK  162  A    between atoms: _382  and  _385
REMARK  163  A    between atoms: _385  and  _386
REMARK  164  A    between atoms: _391  and  _393
REMARK  165  A    between atoms: _393  and  _394
REMARK  166  A    between atoms: _393  and  _396
REMARK  167  A    between atoms: _396  and  _397
REMARK  168  A    between atoms: _400  and  _402
REMARK  169  A    between atoms: _402  and  _403
REMARK  170  A    between atoms: _402  and  _405
REMARK  171  A    between atoms: _405  and  _406
REMARK  172  A    between atoms: _408  and  _410
REMARK  173  A    between atoms: _410  and  _411
REMARK  174  A    between atoms: _410  and  _413
REMARK  175  A    between atoms: _413  and  _414
REMARK                            x       y       z     vdW  Elec       q    Type
REMARK                         _______ _______ _______ _____ _____    ______ ____
ROOT
ATOM      1  O   HOH     1     -17.758 -23.484 -22.802  0.00  0.00    +0.000 OA
ENDROOT
TORSDOF 0
REMARK  Name = ../refined-set-2016/3t0d/3t0d_pocket.pdb
REMARK  175 active torsions:
REMARK  status: ('A' for Active; 'I' for Inactive)
REMARK    1  A    between atoms: _1  and  _3
REMARK    2  A    between atoms: _3  and  _4
REMARK    3  A    between atoms: _3  and  _6
REMARK    4  A    between atoms: _6  and  _7
REMARK    5  A    between atoms: _12  and  _13
REMARK    6  A    between atoms: _15  and  _17
REMARK    7  A    between atoms: _17  and  _18
REMARK    8  A    between atoms: _17  and  _20
REMARK    9  A    between atoms: _20  and  _21
REMARK   10  A    between atoms: _24  and  _26
REMARK   11  A    between atoms: _26  and  _27
REMARK   12  A    between atoms: _26  and  _29
REMARK   13  A    between atoms: _29  and  _30
REMARK   14  A    between atoms: _35  and  _37
REMARK   15  A    between atoms: _37  and  _38
REMARK   16  A    between atoms: _37  and  _40
REMARK   17  A    between atoms: _43  and  _45
REMARK   18  A    between atoms: _45  and  _46
REMARK   19  A    between atoms: _45  and  _48
REMARK   20  A    between atoms: _48  and  _49
REMARK   21  A    between atoms: _52  and  _54
REMARK   22  A    between atoms: _54  and  _55
REMARK   23  A    between atoms: _54  and  _57
REMARK   24  A    between atoms: _57  and  _58
REMARK   25  A    between atoms: _58  and  _59
REMARK   26  A    between atoms: _64  and  _66
REMARK   27  A    between atoms: _66  and  _67
REMARK   28  A    between atoms: _66  and  _69
REMARK   29  A    between atoms: _69  and  _70
REMARK   30  A    between atoms: _73  and  _75
REMARK   31  A    between atoms: _75  and  _76
REMARK   32  A    between atoms: _75  and  _78
REMARK   33  A    between atoms: _78  and  _79
REMARK   34  A    between atoms: _79  and  _80
REMARK   35  A    between atoms: _82  and  _84
REMARK   36  A    between atoms: _84  and  _85
REMARK   37  A    between atoms: _84  and  _87
REMARK   38  A    between atoms: _87  and  _88
REMARK   39  A    between atoms: _88  and  _89
REMARK   40  A    between atoms: _89  and  _90
REMARK   41  A    between atoms: _99  and  _101
REMARK   42  A    between atoms: _101  and  _102
REMARK   43  A    between atoms: _101  and  _104
REMARK   44  A    between atoms: _104  and  _105
REMARK   45  A    between atoms: _110  and  _112
REMARK   46  A    between atoms: _112  and  _113
REMARK   47  A    between atoms: _112  and  _115
REMARK   48  A    between atoms: _115  and  _116
REMARK   49  A    between atoms: _121  and  _123
REMARK   50  A    between atoms: _123  and  _124
REMARK   51  A    between atoms: _123  and  _126
REMARK   52  A    between atoms: _126  and  _127
REMARK   53  A    between atoms: _127  and  _128
REMARK   54  A    between atoms: _128  and  _129
REMARK   55  A    between atoms: _138  and  _140
REMARK   56  A    between atoms: _140  and  _141
REMARK   57  A    between atoms: _140  and  _143
REMARK   58  A    between atoms: _143  and  _144
REMARK   59  A    between atoms: _146  and  _148
REMARK   60  A    between atoms: _148  and  _149
REMARK   61  A    between atoms: _148  and  _151
REMARK   62  A    between atoms: _151  and  _152
REMARK   63  A    between atoms: _157  and  _159
REMARK   64  A    between atoms: _159  and  _160
REMARK   65  A    between atoms: _159  and  _162
REMARK   66  A    between atoms: _162  and  _163
REMARK   67  A    between atoms: _163  and  _164
REMARK   68  A    between atoms: _167  and  _169
REMARK   69  A    between atoms: _169  and  _170
REMARK   70  A    between atoms: _169  and  _172
REMARK   71  A    between atoms: _172  and  _173
REMARK   72  A    between atoms: _173  and  _174
REMARK   73  A    between atoms: _177  and  _179
REMARK   74  A    between atoms: _179  and  _180
REMARK   75  A    between atoms: _179  and  _182
REMARK   76  A    between atoms: _182  and  _183
REMARK   77  A    between atoms: _184  and  MG_424
REMARK   78  A    between atoms: _188  and  _190
REMARK   79  A    between atoms: _190  and  _191
REMARK   80  A    between atoms: _193  and  _195
REMARK   81  A    between atoms: _195  and  _196
REMARK   82  A    between atoms: _195  and  _198
REMARK   83  A    between atoms: _198  and  _199
REMARK   84  A    between atoms: _204  and  _206
REMARK   85  A    between atoms: _206  and  _207
REMARK   86  A    between atoms: _206  and  _209
REMARK   87  A    between atoms: _209  and  _210
REMARK   88  A    between atoms: _210  and  _211
REMARK   89  A    between atoms: _214  and  _216
REMARK   90  A    between atoms: _216  and  _217
REMARK   91  A    between atoms: _216  and  _219
REMARK   92  A    between atoms: _219  and  _220
REMARK   93  A    between atoms: _220  and  _221
REMARK   94  A    between atoms: _224  and  _226
REMARK   95  A    between atoms: _226  and  _227
REMARK   96  A    between atoms: _226  and  _229
REMARK   97  A    between atoms: _229  and  _230
REMARK   98  A    between atoms: _230  and  _231
REMARK   99  A    between atoms: _233  and  _235
REMARK  100  A    between atoms: _235  and  _236
REMARK  101  A    between atoms: _235  and  _238
REMARK  102  A    between atoms: _238  and  _239
REMARK  103  A    between atoms: _244  and  _245
REMARK  104  A    between atoms: _247  and  _249
REMARK  105  A    between atoms: _249  and  _250
REMARK  106  A    between atoms: _249  and  _252
REMARK  107  A    between atoms: _252  and  _253
REMARK  108  A    between atoms: _253  and  _254
REMARK  109  A    between atoms: _254  and  _255
REMARK  110  A    between atoms: _255  and  _256
REMARK  111  A    between atoms: _260  and  _262
REMARK  112  A    between atoms: _262  and  _263
REMARK  113  A    between atoms: _262  and  _265
REMARK  114  A    between atoms: _267  and  _269
REMARK  115  A    between atoms: _269  and  _270
REMARK  116  A    between atoms: _269  and  _272
REMARK  117  A    between atoms: _272  and  _273
REMARK  118  A    between atoms: _273  and  _274
REMARK  119  A    between atoms: _277  and  _279
REMARK  120  A    between atoms: _279  and  _280
REMARK  121  A    between atoms: _279  and  _282
REMARK  122  A    between atoms: _282  and  _283
REMARK  123  A    between atoms: _288  and  _290
REMARK  124  A    between atoms: _290  and  _291
REMARK  125  A    between atoms: _294  and  _296
REMARK  126  A    between atoms: _296  and  _297
REMARK  127  A    between atoms: _296  and  _299
REMARK  128  A    between atoms: _299  and  _300
REMARK  129  A    between atoms: _300  and  _301
REMARK  130  A    between atoms: _303  and  _305
REMARK  131  A    between atoms: _305  and  _306
REMARK  132  A    between atoms: _305  and  _308
REMARK  133  A    between atoms: _308  and  _309
REMARK  134  A    between atoms: _319  and  _321
REMARK  135  A    between atoms: _321  and  _322
REMARK  136  A    between atoms: _321  and  _324
REMARK  137  A    between atoms: _324  and  _325
REMARK  138  A    between atoms: _328  and  _330
REMARK  139  A    between atoms: _330  and  _331
REMARK  140  A    between atoms: _330  and  _333
REMARK  141  A    between atoms: _333  and  _334
REMARK  142  A    between atoms: _334  and  _335
REMARK  143  A    between atoms: _340  and  _342
REMARK  144  A    between atoms: _342  and  _343
REMARK  145  A    between atoms: _342  and  _345
REMARK  146  A    between atoms: _345  and  _346
REMARK  147  A    between atoms: _346  and  _347
REMARK  148  A    between atoms: _352  and  _354
REMARK  149  A    between atoms: _354  and  _355
REMARK  150  A    between atoms: _354  and  _357
REMARK  151  A    between atoms: _357  and  _358
REMARK  152  A    between atoms: _364  and  _366
REMARK  153  A    between atoms: _366  and  _367
REMARK  154  A    between atoms: _366  and  _369
REMARK  155  A    between atoms: _371  and  _373
REMARK  156  A    between atoms: _373  and  _374
REMARK  157  A    between atoms: _373  and  _376
REMARK  158  A    between atoms: _376  and  _377
REMARK  159  A    between atoms: _377  and  _378
REMARK  160  A    between atoms: _380  and  _382
REMARK  161  A    between atoms: _382  and  _383
REMARK  162  A    between atoms: _382  and  _385
REMARK  163  A    between atoms: _385  and  _386
REMARK  164  A    between atoms: _391  and  _393
REMARK  165  A    between atoms: _393  and  _394
REMARK  166  A    between atoms: _393  and  _396
REMARK  167  A    between atoms: _396  and  _397
REMARK  168  A    between atoms: _400  and  _402
REMARK  169  A    between atoms: _402  and  _403
REMARK  170  A    between atoms: _402  and  _405
REMARK  171  A    between atoms: _405  and  _406
REMARK  172  A    between atoms: _408  and  _410
REMARK  173  A    between atoms: _410  and  _411
REMARK  174  A    between atoms: _410  and  _413
REMARK  175  A    between atoms: _413  and  _414
REMARK                            x       y       z     vdW  Elec       q    Type
REMARK                         _______ _______ _______ _____ _____    ______ ____
ROOT
ATOM      1  O   HOH     1     -18.395 -25.779 -21.989  0.00  0.00    +0.000 OA
ENDROOT
TORSDOF 0
REMARK  Name = ../refined-set-2016/3t0d/3t0d_pocket.pdb
REMARK  175 active torsions:
REMARK  status: ('A' for Active; 'I' for Inactive)
REMARK    1  A    between atoms: _1  and  _3
REMARK    2  A    between atoms: _3  and  _4
REMARK    3  A    between atoms: _3  and  _6
REMARK    4  A    between atoms: _6  and  _7
REMARK    5  A    between atoms: _12  and  _13
REMARK    6  A    between atoms: _15  and  _17
REMARK    7  A    between atoms: _17  and  _18
REMARK    8  A    between atoms: _17  and  _20
REMARK    9  A    between atoms: _20  and  _21
REMARK   10  A    between atoms: _24  and  _26
REMARK   11  A    between atoms: _26  and  _27
REMARK   12  A    between atoms: _26  and  _29
REMARK   13  A    between atoms: _29  and  _30
REMARK   14  A    between atoms: _35  and  _37
REMARK   15  A    between atoms: _37  and  _38
REMARK   16  A    between atoms: _37  and  _40
REMARK   17  A    between atoms: _43  and  _45
REMARK   18  A    between atoms: _45  and  _46
REMARK   19  A    between atoms: _45  and  _48
REMARK   20  A    between atoms: _48  and  _49
REMARK   21  A    between atoms: _52  and  _54
REMARK   22  A    between atoms: _54  and  _55
REMARK   23  A    between atoms: _54  and  _57
REMARK   24  A    between atoms: _57  and  _58
REMARK   25  A    between atoms: _58  and  _59
REMARK   26  A    between atoms: _64  and  _66
REMARK   27  A    between atoms: _66  and  _67
REMARK   28  A    between atoms: _66  and  _69
REMARK   29  A    between atoms: _69  and  _70
REMARK   30  A    between atoms: _73  and  _75
REMARK   31  A    between atoms: _75  and  _76
REMARK   32  A    between atoms: _75  and  _78
REMARK   33  A    between atoms: _78  and  _79
REMARK   34  A    between atoms: _79  and  _80
REMARK   35  A    between atoms: _82  and  _84
REMARK   36  A    between atoms: _84  and  _85
REMARK   37  A    between atoms: _84  and  _87
REMARK   38  A    between atoms: _87  and  _88
REMARK   39  A    between atoms: _88  and  _89
REMARK   40  A    between atoms: _89  and  _90
REMARK   41  A    between atoms: _99  and  _101
REMARK   42  A    between atoms: _101  and  _102
REMARK   43  A    between atoms: _101  and  _104
REMARK   44  A    between atoms: _104  and  _105
REMARK   45  A    between atoms: _110  and  _112
REMARK   46  A    between atoms: _112  and  _113
REMARK   47  A    between atoms: _112  and  _115
REMARK   48  A    between atoms: _115  and  _116
REMARK   49  A    between atoms: _121  and  _123
REMARK   50  A    between atoms: _123  and  _124
REMARK   51  A    between atoms: _123  and  _126
REMARK   52  A    between atoms: _126  and  _127
REMARK   53  A    between atoms: _127  and  _128
REMARK   54  A    between atoms: _128  and  _129
REMARK   55  A    between atoms: _138  and  _140
REMARK   56  A    between atoms: _140  and  _141
REMARK   57  A    between atoms: _140  and  _143
REMARK   58  A    between atoms: _143  and  _144
REMARK   59  A    between atoms: _146  and  _148
REMARK   60  A    between atoms: _148  and  _149
REMARK   61  A    between atoms: _148  and  _151
REMARK   62  A    between atoms: _151  and  _152
REMARK   63  A    between atoms: _157  and  _159
REMARK   64  A    between atoms: _159  and  _160
REMARK   65  A    between atoms: _159  and  _162
REMARK   66  A    between atoms: _162  and  _163
REMARK   67  A    between atoms: _163  and  _164
REMARK   68  A    between atoms: _167  and  _169
REMARK   69  A    between atoms: _169  and  _170
REMARK   70  A    between atoms: _169  and  _172
REMARK   71  A    between atoms: _172  and  _173
REMARK   72  A    between atoms: _173  and  _174
REMARK   73  A    between atoms: _177  and  _179
REMARK   74  A    between atoms: _179  and  _180
REMARK   75  A    between atoms: _179  and  _182
REMARK   76  A    between atoms: _182  and  _183
REMARK   77  A    between atoms: _184  and  MG_424
REMARK   78  A    between atoms: _188  and  _190
REMARK   79  A    between atoms: _190  and  _191
REMARK   80  A    between atoms: _193  and  _195
REMARK   81  A    between atoms: _195  and  _196
REMARK   82  A    between atoms: _195  and  _198
REMARK   83  A    between atoms: _198  and  _199
REMARK   84  A    between atoms: _204  and  _206
REMARK   85  A    between atoms: _206  and  _207
REMARK   86  A    between atoms: _206  and  _209
REMARK   87  A    between atoms: _209  and  _210
REMARK   88  A    between atoms: _210  and  _211
REMARK   89  A    between atoms: _214  and  _216
REMARK   90  A    between atoms: _216  and  _217
REMARK   91  A    between atoms: _216  and  _219
REMARK   92  A    between atoms: _219  and  _220
REMARK   93  A    between atoms: _220  and  _221
REMARK   94  A    between atoms: _224  and  _226
REMARK   95  A    between atoms: _226  and  _227
REMARK   96  A    between atoms: _226  and  _229
REMARK   97  A    between atoms: _229  and  _230
REMARK   98  A    between atoms: _230  and  _231
REMARK   99  A    between atoms: _233  and  _235
REMARK  100  A    between atoms: _235  and  _236
REMARK  101  A    between atoms: _235  and  _238
REMARK  102  A    between atoms: _238  and  _239
REMARK  103  A    between atoms: _244  and  _245
REMARK  104  A    between atoms: _247  and  _249
REMARK  105  A    between atoms: _249  and  _250
REMARK  106  A    between atoms: _249  and  _252
REMARK  107  A    between atoms: _252  and  _253
REMARK  108  A    between atoms: _253  and  _254
REMARK  109  A    between atoms: _254  and  _255
REMARK  110  A    between atoms: _255  and  _256
REMARK  111  A    between atoms: _260  and  _262
REMARK  112  A    between atoms: _262  and  _263
REMARK  113  A    between atoms: _262  and  _265
REMARK  114  A    between atoms: _267  and  _269
REMARK  115  A    between atoms: _269  and  _270
REMARK  116  A    between atoms: _269  and  _272
REMARK  117  A    between atoms: _272  and  _273
REMARK  118  A    between atoms: _273  and  _274
REMARK  119  A    between atoms: _277  and  _279
REMARK  120  A    between atoms: _279  and  _280
REMARK  121  A    between atoms: _279  and  _282
REMARK  122  A    between atoms: _282  and  _283
REMARK  123  A    between atoms: _288  and  _290
REMARK  124  A    between atoms: _290  and  _291
REMARK  125  A    between atoms: _294  and  _296
REMARK  126  A    between atoms: _296  and  _297
REMARK  127  A    between atoms: _296  and  _299
REMARK  128  A    between atoms: _299  and  _300
REMARK  129  A    between atoms: _300  and  _301
REMARK  130  A    between atoms: _303  and  _305
REMARK  131  A    between atoms: _305  and  _306
REMARK  132  A    between atoms: _305  and  _308
REMARK  133  A    between atoms: _308  and  _309
REMARK  134  A    between atoms: _319  and  _321
REMARK  135  A    between atoms: _321  and  _322
REMARK  136  A    between atoms: _321  and  _324
REMARK  137  A    between atoms: _324  and  _325
REMARK  138  A    between atoms: _328  and  _330
REMARK  139  A    between atoms: _330  and  _331
REMARK  140  A    between atoms: _330  and  _333
REMARK  141  A    between atoms: _333  and  _334
REMARK  142  A    between atoms: _334  and  _335
REMARK  143  A    between atoms: _340  and  _342
REMARK  144  A    between atoms: _342  and  _343
REMARK  145  A    between atoms: _342  and  _345
REMARK  146  A    between atoms: _345  and  _346
REMARK  147  A    between atoms: _346  and  _347
REMARK  148  A    between atoms: _352  and  _354
REMARK  149  A    between atoms: _354  and  _355
REMARK  150  A    between atoms: _354  and  _357
REMARK  151  A    between atoms: _357  and  _358
REMARK  152  A    between atoms: _364  and  _366
REMARK  153  A    between atoms: _366  and  _367
REMARK  154  A    between atoms: _366  and  _369
REMARK  155  A    between atoms: _371  and  _373
REMARK  156  A    between atoms: _373  and  _374
REMARK  157  A    between atoms: _373  and  _376
REMARK  158  A    between atoms: _376  and  _377
REMARK  159  A    between atoms: _377  and  _378
REMARK  160  A    between atoms: _380  and  _382
REMARK  161  A    between atoms: _382  and  _383
REMARK  162  A    between atoms: _382  and  _385
REMARK  163  A    between atoms: _385  and  _386
REMARK  164  A    between atoms: _391  and  _393
REMARK  165  A    between atoms: _393  and  _394
REMARK  166  A    between atoms: _393  and  _396
REMARK  167  A    between atoms: _396  and  _397
REMARK  168  A    between atoms: _400  and  _402
REMARK  169  A    between atoms: _402  and  _403
REMARK  170  A    between atoms: _402  and  _405
REMARK  171  A    between atoms: _405  and  _406
REMARK  172  A    between atoms: _408  and  _410
REMARK  173  A    between atoms: _410  and  _411
REMARK  174  A    between atoms: _410  and  _413
REMARK  175  A    between atoms: _413  and  _414
REMARK                            x       y       z     vdW  Elec       q    Type
REMARK                         _______ _______ _______ _____ _____    ______ ____
ROOT
ATOM      1  O   HOH     1     -18.588 -32.084 -29.012  0.00  0.00    +0.000 OA
ENDROOT
TORSDOF 0
REMARK  Name = ../refined-set-2016/3t0d/3t0d_pocket.pdb
REMARK  175 active torsions:
REMARK  status: ('A' for Active; 'I' for Inactive)
REMARK    1  A    between atoms: _1  and  _3
REMARK    2  A    between atoms: _3  and  _4
REMARK    3  A    between atoms: _3  and  _6
REMARK    4  A    between atoms: _6  and  _7
REMARK    5  A    between atoms: _12  and  _13
REMARK    6  A    between atoms: _15  and  _17
REMARK    7  A    between atoms: _17  and  _18
REMARK    8  A    between atoms: _17  and  _20
REMARK    9  A    between atoms: _20  and  _21
REMARK   10  A    between atoms: _24  and  _26
REMARK   11  A    between atoms: _26  and  _27
REMARK   12  A    between atoms: _26  and  _29
REMARK   13  A    between atoms: _29  and  _30
REMARK   14  A    between atoms: _35  and  _37
REMARK   15  A    between atoms: _37  and  _38
REMARK   16  A    between atoms: _37  and  _40
REMARK   17  A    between atoms: _43  and  _45
REMARK   18  A    between atoms: _45  and  _46
REMARK   19  A    between atoms: _45  and  _48
REMARK   20  A    between atoms: _48  and  _49
REMARK   21  A    between atoms: _52  and  _54
REMARK   22  A    between atoms: _54  and  _55
REMARK   23  A    between atoms: _54  and  _57
REMARK   24  A    between atoms: _57  and  _58
REMARK   25  A    between atoms: _58  and  _59
REMARK   26  A    between atoms: _64  and  _66
REMARK   27  A    between atoms: _66  and  _67
REMARK   28  A    between atoms: _66  and  _69
REMARK   29  A    between atoms: _69  and  _70
REMARK   30  A    between atoms: _73  and  _75
REMARK   31  A    between atoms: _75  and  _76
REMARK   32  A    between atoms: _75  and  _78
REMARK   33  A    between atoms: _78  and  _79
REMARK   34  A    between atoms: _79  and  _80
REMARK   35  A    between atoms: _82  and  _84
REMARK   36  A    between atoms: _84  and  _85
REMARK   37  A    between atoms: _84  and  _87
REMARK   38  A    between atoms: _87  and  _88
REMARK   39  A    between atoms: _88  and  _89
REMARK   40  A    between atoms: _89  and  _90
REMARK   41  A    between atoms: _99  and  _101
REMARK   42  A    between atoms: _101  and  _102
REMARK   43  A    between atoms: _101  and  _104
REMARK   44  A    between atoms: _104  and  _105
REMARK   45  A    between atoms: _110  and  _112
REMARK   46  A    between atoms: _112  and  _113
REMARK   47  A    between atoms: _112  and  _115
REMARK   48  A    between atoms: _115  and  _116
REMARK   49  A    between atoms: _121  and  _123
REMARK   50  A    between atoms: _123  and  _124
REMARK   51  A    between atoms: _123  and  _126
REMARK   52  A    between atoms: _126  and  _127
REMARK   53  A    between atoms: _127  and  _128
REMARK   54  A    between atoms: _128  and  _129
REMARK   55  A    between atoms: _138  and  _140
REMARK   56  A    between atoms: _140  and  _141
REMARK   57  A    between atoms: _140  and  _143
REMARK   58  A    between atoms: _143  and  _144
REMARK   59  A    between atoms: _146  and  _148
REMARK   60  A    between atoms: _148  and  _149
REMARK   61  A    between atoms: _148  and  _151
REMARK   62  A    between atoms: _151  and  _152
REMARK   63  A    between atoms: _157  and  _159
REMARK   64  A    between atoms: _159  and  _160
REMARK   65  A    between atoms: _159  and  _162
REMARK   66  A    between atoms: _162  and  _163
REMARK   67  A    between atoms: _163  and  _164
REMARK   68  A    between atoms: _167  and  _169
REMARK   69  A    between atoms: _169  and  _170
REMARK   70  A    between atoms: _169  and  _172
REMARK   71  A    between atoms: _172  and  _173
REMARK   72  A    between atoms: _173  and  _174
REMARK   73  A    between atoms: _177  and  _179
REMARK   74  A    between atoms: _179  and  _180
REMARK   75  A    between atoms: _179  and  _182
REMARK   76  A    between atoms: _182  and  _183
REMARK   77  A    between atoms: _184  and  MG_424
REMARK   78  A    between atoms: _188  and  _190
REMARK   79  A    between atoms: _190  and  _191
REMARK   80  A    between atoms: _193  and  _195
REMARK   81  A    between atoms: _195  and  _196
REMARK   82  A    between atoms: _195  and  _198
REMARK   83  A    between atoms: _198  and  _199
REMARK   84  A    between atoms: _204  and  _206
REMARK   85  A    between atoms: _206  and  _207
REMARK   86  A    between atoms: _206  and  _209
REMARK   87  A    between atoms: _209  and  _210
REMARK   88  A    between atoms: _210  and  _211
REMARK   89  A    between atoms: _214  and  _216
REMARK   90  A    between atoms: _216  and  _217
REMARK   91  A    between atoms: _216  and  _219
REMARK   92  A    between atoms: _219  and  _220
REMARK   93  A    between atoms: _220  and  _221
REMARK   94  A    between atoms: _224  and  _226
REMARK   95  A    between atoms: _226  and  _227
REMARK   96  A    between atoms: _226  and  _229
REMARK   97  A    between atoms: _229  and  _230
REMARK   98  A    between atoms: _230  and  _231
REMARK   99  A    between atoms: _233  and  _235
REMARK  100  A    between atoms: _235  and  _236
REMARK  101  A    between atoms: _235  and  _238
REMARK  102  A    between atoms: _238  and  _239
REMARK  103  A    between atoms: _244  and  _245
REMARK  104  A    between atoms: _247  and  _249
REMARK  105  A    between atoms: _249  and  _250
REMARK  106  A    between atoms: _249  and  _252
REMARK  107  A    between atoms: _252  and  _253
REMARK  108  A    between atoms: _253  and  _254
REMARK  109  A    between atoms: _254  and  _255
REMARK  110  A    between atoms: _255  and  _256
REMARK  111  A    between atoms: _260  and  _262
REMARK  112  A    between atoms: _262  and  _263
REMARK  113  A    between atoms: _262  and  _265
REMARK  114  A    between atoms: _267  and  _269
REMARK  115  A    between atoms: _269  and  _270
REMARK  116  A    between atoms: _269  and  _272
REMARK  117  A    between atoms: _272  and  _273
REMARK  118  A    between atoms: _273  and  _274
REMARK  119  A    between atoms: _277  and  _279
REMARK  120  A    between atoms: _279  and  _280
REMARK  121  A    between atoms: _279  and  _282
REMARK  122  A    between atoms: _282  and  _283
REMARK  123  A    between atoms: _288  and  _290
REMARK  124  A    between atoms: _290  and  _291
REMARK  125  A    between atoms: _294  and  _296
REMARK  126  A    between atoms: _296  and  _297
REMARK  127  A    between atoms: _296  and  _299
REMARK  128  A    between atoms: _299  and  _300
REMARK  129  A    between atoms: _300  and  _301
REMARK  130  A    between atoms: _303  and  _305
REMARK  131  A    between atoms: _305  and  _306
REMARK  132  A    between atoms: _305  and  _308
REMARK  133  A    between atoms: _308  and  _309
REMARK  134  A    between atoms: _319  and  _321
REMARK  135  A    between atoms: _321  and  _322
REMARK  136  A    between atoms: _321  and  _324
REMARK  137  A    between atoms: _324  and  _325
REMARK  138  A    between atoms: _328  and  _330
REMARK  139  A    between atoms: _330  and  _331
REMARK  140  A    between atoms: _330  and  _333
REMARK  141  A    between atoms: _333  and  _334
REMARK  142  A    between atoms: _334  and  _335
REMARK  143  A    between atoms: _340  and  _342
REMARK  144  A    between atoms: _342  and  _343
REMARK  145  A    between atoms: _342  and  _345
REMARK  146  A    between atoms: _345  and  _346
REMARK  147  A    between atoms: _346  and  _347
REMARK  148  A    between atoms: _352  and  _354
REMARK  149  A    between atoms: _354  and  _355
REMARK  150  A    between atoms: _354  and  _357
REMARK  151  A    between atoms: _357  and  _358
REMARK  152  A    between atoms: _364  and  _366
REMARK  153  A    between atoms: _366  and  _367
REMARK  154  A    between atoms: _366  and  _369
REMARK  155  A    between atoms: _371  and  _373
REMARK  156  A    between atoms: _373  and  _374
REMARK  157  A    between atoms: _373  and  _376
REMARK  158  A    between atoms: _376  and  _377
REMARK  159  A    between atoms: _377  and  _378
REMARK  160  A    between atoms: _380  and  _382
REMARK  161  A    between atoms: _382  and  _383
REMARK  162  A    between atoms: _382  and  _385
REMARK  163  A    between atoms: _385  and  _386
REMARK  164  A    between atoms: _391  and  _393
REMARK  165  A    between atoms: _393  and  _394
REMARK  166  A    between atoms: _393  and  _396
REMARK  167  A    between atoms: _396  and  _397
REMARK  168  A    between atoms: _400  and  _402
REMARK  169  A    between atoms: _402  and  _403
REMARK  170  A    between atoms: _402  and  _405
REMARK  171  A    between atoms: _405  and  _406
REMARK  172  A    between atoms: _408  and  _410
REMARK  173  A    between atoms: _410  and  _411
REMARK  174  A    between atoms: _410  and  _413
REMARK  175  A    between atoms: _413  and  _414
REMARK                            x       y       z     vdW  Elec       q    Type
REMARK                         _______ _______ _______ _____ _____    ______ ____
ROOT
ATOM      1  O   HOH     1     -13.909 -22.819 -20.307  0.00  0.00    +0.000 OA
ENDROOT
TORSDOF 0
