REMARK  Name = ../refined-set-2016/2bt9/2bt9_pocket.pdb
REMARK  108 active torsions:
REMARK  status: ('A' for Active; 'I' for Inactive)
REMARK    1  A    between atoms: _1  and  _3
REMARK    2  A    between atoms: _3  and  _4
REMARK    3  A    between atoms: _3  and  _6
REMARK    4  A    between atoms: _6  and  _7
REMARK    5  A    between atoms: _10  and  _12
REMARK    6  A    between atoms: _12  and  _13
REMARK    7  A    between atoms: _12  and  _15
REMARK    8  A    between atoms: _15  and  _16
REMARK    9  A    between atoms: _26  and  _28
REMARK   10  A    between atoms: _28  and  _29
REMARK   11  A    between atoms: _28  and  _31
REMARK   12  A    between atoms: _31  and  _32
REMARK   13  A    between atoms: _34  and  _36
REMARK   14  A    between atoms: _36  and  _37
REMARK   15  A    between atoms: _36  and  _39
REMARK   16  A    between atoms: _39  and  _40
REMARK   17  A    between atoms: _43  and  _45
REMARK   18  A    between atoms: _45  and  _46
REMARK   19  A    between atoms: _45  and  _48
REMARK   20  A    between atoms: _48  and  _49
REMARK   21  A    between atoms: _49  and  _50
REMARK   22  A    between atoms: _50  and  _51
REMARK   23  A    between atoms: _60  and  _62
REMARK   24  A    between atoms: _62  and  _63
REMARK   25  A    between atoms: _62  and  _65
REMARK   26  A    between atoms: _68  and  _70
REMARK   27  A    between atoms: _70  and  _71
REMARK   28  A    between atoms: _70  and  _73
REMARK   29  A    between atoms: _73  and  _74
REMARK   30  A    between atoms: _79  and  _80
REMARK   31  A    between atoms: _82  and  _84
REMARK   32  A    between atoms: _84  and  _85
REMARK   33  A    between atoms: _84  and  _87
REMARK   34  A    between atoms: _87  and  _88
REMARK   35  A    between atoms: _88  and  _89
REMARK   36  A    between atoms: _92  and  _94
REMARK   37  A    between atoms: _94  and  _95
REMARK   38  A    between atoms: _94  and  _97
REMARK   39  A    between atoms: _97  and  _98
REMARK   40  A    between atoms: _98  and  _99
REMARK   41  A    between atoms: _99  and  _100
REMARK   42  A    between atoms: _109  and  _111
REMARK   43  A    between atoms: _111  and  _112
REMARK   44  A    between atoms: _111  and  _114
REMARK   45  A    between atoms: _116  and  _118
REMARK   46  A    between atoms: _118  and  _119
REMARK   47  A    between atoms: _118  and  _121
REMARK   48  A    between atoms: _121  and  _122
REMARK   49  A    between atoms: _132  and  _134
REMARK   50  A    between atoms: _134  and  _135
REMARK   51  A    between atoms: _134  and  _137
REMARK   52  A    between atoms: _137  and  _138
REMARK   53  A    between atoms: _141  and  _143
REMARK   54  A    between atoms: _143  and  _144
REMARK   55  A    between atoms: _143  and  _146
REMARK   56  A    between atoms: _146  and  _147
REMARK   57  A    between atoms: _152  and  _153
REMARK   58  A    between atoms: _155  and  _157
REMARK   59  A    between atoms: _157  and  _158
REMARK   60  A    between atoms: _157  and  _160
REMARK   61  A    between atoms: _160  and  _161
REMARK   62  A    between atoms: _164  and  _166
REMARK   63  A    between atoms: _166  and  _167
REMARK   64  A    between atoms: _169  and  _171
REMARK   65  A    between atoms: _171  and  _172
REMARK   66  A    between atoms: _175  and  _177
REMARK   67  A    between atoms: _177  and  _178
REMARK   68  A    between atoms: _177  and  _180
REMARK   69  A    between atoms: _180  and  _181
REMARK   70  A    between atoms: _187  and  _189
REMARK   71  A    between atoms: _189  and  _190
REMARK   72  A    between atoms: _189  and  _192
REMARK   73  A    between atoms: _192  and  _193
REMARK   74  A    between atoms: _198  and  _200
REMARK   75  A    between atoms: _200  and  _201
REMARK   76  A    between atoms: _200  and  _203
REMARK   77  A    between atoms: _203  and  _204
REMARK   78  A    between atoms: _207  and  _209
REMARK   79  A    between atoms: _209  and  _210
REMARK   80  A    between atoms: _209  and  _212
REMARK   81  A    between atoms: _212  and  _213
REMARK   82  A    between atoms: _218  and  _220
REMARK   83  A    between atoms: _220  and  _221
REMARK   84  A    between atoms: _220  and  _223
REMARK   85  A    between atoms: _223  and  _224
REMARK   86  A    between atoms: _227  and  _229
REMARK   87  A    between atoms: _229  and  _230
REMARK   88  A    between atoms: _229  and  _232
REMARK   89  A    between atoms: _235  and  _237
REMARK   90  A    between atoms: _237  and  _238
REMARK   91  A    between atoms: _237  and  _240
REMARK   92  A    between atoms: _240  and  _241
REMARK   93  A    between atoms: _251  and  _253
REMARK   94  A    between atoms: _253  and  _254
REMARK   95  A    between atoms: _253  and  _256
REMARK   96  A    between atoms: _256  and  _257
REMARK   97  A    between atoms: _260  and  _262
REMARK   98  A    between atoms: _262  and  _263
REMARK   99  A    between atoms: _265  and  _267
REMARK  100  A    between atoms: _267  and  _268
REMARK  101  A    between atoms: _267  and  _270
REMARK  102  A    between atoms: _270  and  _271
REMARK  103  A    between atoms: _276  and  _278
REMARK  104  A    between atoms: _278  and  _279
REMARK  105  A    between atoms: _281  and  _283
REMARK  106  A    between atoms: _283  and  _284
REMARK  107  A    between atoms: _283  and  _286
REMARK  108  A    between atoms: _286  and  _287
REMARK                            x       y       z     vdW  Elec       q    Type
REMARK                         _______ _______ _______ _____ _____    ______ ____
ROOT
ATOM      1  CA  THR A   1      -9.189  26.201  -3.111  0.00  0.00    +0.160 C 
ENDROOT
BRANCH   1   2
ATOM      2  N   THR A   1      -8.739  25.945  -1.753  0.00  0.00    -0.237 NA
ATOM      3  H   THR A   1      -7.862  26.396  -1.423  0.00  0.00    +0.142 HD
ENDBRANCH   1   2
BRANCH   1   4
ATOM      4  CB  THR A   1     -10.090  27.446  -3.179  0.00  0.00    +0.134 C 
ATOM      5  CG2 THR A   1      -9.348  28.752  -3.047  0.00  0.00    +0.034 C 
BRANCH   4   6
ATOM      6  OG1 THR A   1     -10.804  27.448  -4.403  0.00  0.00    -0.383 OA
ATOM      7  HG1 THR A   1     -11.363  26.633  -4.459  0.00  0.00    +0.210 HD
ENDBRANCH   4   6
ENDBRANCH   1   4
BRANCH   1   8
ATOM      8  C   THR A   1      -7.958  26.314  -4.006  0.00  0.00    +0.227 C 
ATOM      9  O   THR A   1      -6.850  26.568  -3.521  0.00  0.00    -0.287 OA
ENDBRANCH   1   8
TORSDOF 4
REMARK  Name = ../refined-set-2016/2bt9/2bt9_pocket.pdb
REMARK  108 active torsions:
REMARK  status: ('A' for Active; 'I' for Inactive)
REMARK    1  A    between atoms: _1  and  _3
REMARK    2  A    between atoms: _3  and  _4
REMARK    3  A    between atoms: _3  and  _6
REMARK    4  A    between atoms: _6  and  _7
REMARK    5  A    between atoms: _10  and  _12
REMARK    6  A    between atoms: _12  and  _13
REMARK    7  A    between atoms: _12  and  _15
REMARK    8  A    between atoms: _15  and  _16
REMARK    9  A    between atoms: _26  and  _28
REMARK   10  A    between atoms: _28  and  _29
REMARK   11  A    between atoms: _28  and  _31
REMARK   12  A    between atoms: _31  and  _32
REMARK   13  A    between atoms: _34  and  _36
REMARK   14  A    between atoms: _36  and  _37
REMARK   15  A    between atoms: _36  and  _39
REMARK   16  A    between atoms: _39  and  _40
REMARK   17  A    between atoms: _43  and  _45
REMARK   18  A    between atoms: _45  and  _46
REMARK   19  A    between atoms: _45  and  _48
REMARK   20  A    between atoms: _48  and  _49
REMARK   21  A    between atoms: _49  and  _50
REMARK   22  A    between atoms: _50  and  _51
REMARK   23  A    between atoms: _60  and  _62
REMARK   24  A    between atoms: _62  and  _63
REMARK   25  A    between atoms: _62  and  _65
REMARK   26  A    between atoms: _68  and  _70
REMARK   27  A    between atoms: _70  and  _71
REMARK   28  A    between atoms: _70  and  _73
REMARK   29  A    between atoms: _73  and  _74
REMARK   30  A    between atoms: _79  and  _80
REMARK   31  A    between atoms: _82  and  _84
REMARK   32  A    between atoms: _84  and  _85
REMARK   33  A    between atoms: _84  and  _87
REMARK   34  A    between atoms: _87  and  _88
REMARK   35  A    between atoms: _88  and  _89
REMARK   36  A    between atoms: _92  and  _94
REMARK   37  A    between atoms: _94  and  _95
REMARK   38  A    between atoms: _94  and  _97
REMARK   39  A    between atoms: _97  and  _98
REMARK   40  A    between atoms: _98  and  _99
REMARK   41  A    between atoms: _99  and  _100
REMARK   42  A    between atoms: _109  and  _111
REMARK   43  A    between atoms: _111  and  _112
REMARK   44  A    between atoms: _111  and  _114
REMARK   45  A    between atoms: _116  and  _118
REMARK   46  A    between atoms: _118  and  _119
REMARK   47  A    between atoms: _118  and  _121
REMARK   48  A    between atoms: _121  and  _122
REMARK   49  A    between atoms: _132  and  _134
REMARK   50  A    between atoms: _134  and  _135
REMARK   51  A    between atoms: _134  and  _137
REMARK   52  A    between atoms: _137  and  _138
REMARK   53  A    between atoms: _141  and  _143
REMARK   54  A    between atoms: _143  and  _144
REMARK   55  A    between atoms: _143  and  _146
REMARK   56  A    between atoms: _146  and  _147
REMARK   57  A    between atoms: _152  and  _153
REMARK   58  A    between atoms: _155  and  _157
REMARK   59  A    between atoms: _157  and  _158
REMARK   60  A    between atoms: _157  and  _160
REMARK   61  A    between atoms: _160  and  _161
REMARK   62  A    between atoms: _164  and  _166
REMARK   63  A    between atoms: _166  and  _167
REMARK   64  A    between atoms: _169  and  _171
REMARK   65  A    between atoms: _171  and  _172
REMARK   66  A    between atoms: _175  and  _177
REMARK   67  A    between atoms: _177  and  _178
REMARK   68  A    between atoms: _177  and  _180
REMARK   69  A    between atoms: _180  and  _181
REMARK   70  A    between atoms: _187  and  _189
REMARK   71  A    between atoms: _189  and  _190
REMARK   72  A    between atoms: _189  and  _192
REMARK   73  A    between atoms: _192  and  _193
REMARK   74  A    between atoms: _198  and  _200
REMARK   75  A    between atoms: _200  and  _201
REMARK   76  A    between atoms: _200  and  _203
REMARK   77  A    between atoms: _203  and  _204
REMARK   78  A    between atoms: _207  and  _209
REMARK   79  A    between atoms: _209  and  _210
REMARK   80  A    between atoms: _209  and  _212
REMARK   81  A    between atoms: _212  and  _213
REMARK   82  A    between atoms: _218  and  _220
REMARK   83  A    between atoms: _220  and  _221
REMARK   84  A    between atoms: _220  and  _223
REMARK   85  A    between atoms: _223  and  _224
REMARK   86  A    between atoms: _227  and  _229
REMARK   87  A    between atoms: _229  and  _230
REMARK   88  A    between atoms: _229  and  _232
REMARK   89  A    between atoms: _235  and  _237
REMARK   90  A    between atoms: _237  and  _238
REMARK   91  A    between atoms: _237  and  _240
REMARK   92  A    between atoms: _240  and  _241
REMARK   93  A    between atoms: _251  and  _253
REMARK   94  A    between atoms: _253  and  _254
REMARK   95  A    between atoms: _253  and  _256
REMARK   96  A    between atoms: _256  and  _257
REMARK   97  A    between atoms: _260  and  _262
REMARK   98  A    between atoms: _262  and  _263
REMARK   99  A    between atoms: _265  and  _267
REMARK  100  A    between atoms: _267  and  _268
REMARK  101  A    between atoms: _267  and  _270
REMARK  102  A    between atoms: _270  and  _271
REMARK  103  A    between atoms: _276  and  _278
REMARK  104  A    between atoms: _278  and  _279
REMARK  105  A    between atoms: _281  and  _283
REMARK  106  A    between atoms: _283  and  _284
REMARK  107  A    between atoms: _283  and  _286
REMARK  108  A    between atoms: _286  and  _287
REMARK                            x       y       z     vdW  Elec       q    Type
REMARK                         _______ _______ _______ _____ _____    ______ ____
ROOT
ATOM      1  CG  TRP A   1      -6.703  30.096  -9.307  0.00  0.00    -0.002 A 
ATOM      2  CD2 TRP A   1      -6.496  30.554  -7.963  0.00  0.00    +0.013 A 
ATOM      3  CE3 TRP A   1      -7.007  30.180  -6.723  0.00  0.00    +0.001 A 
ATOM      4  CZ3 TRP A   1      -6.606  30.840  -5.589  0.00  0.00    +0.000 A 
ATOM      5  CH2 TRP A   1      -5.685  31.890  -5.661  0.00  0.00    +0.001 A 
ATOM      6  CZ2 TRP A   1      -5.155  32.286  -6.859  0.00  0.00    +0.017 A 
ATOM      7  CE2 TRP A   1      -5.573  31.619  -8.001  0.00  0.00    +0.056 A 
ATOM      8  NE1 TRP A   1      -5.225  31.810  -9.317  0.00  0.00    -0.352 N 
ATOM      9  HE1 TRP A   1      -4.560  32.525  -9.673  0.00  0.00    +0.166 HD
ATOM     10  CD1 TRP A   1      -5.910  30.890 -10.084  0.00  0.00    +0.068 A 
ENDROOT
BRANCH   1  11
ATOM     11  CB  TRP A   1      -7.618  29.032  -9.786  0.00  0.00    +0.053 C 
BRANCH  11  12
ATOM     12  CA  TRP A   1      -7.092  27.610  -9.780  0.00  0.00    +0.137 C 
BRANCH  12  13
ATOM     13  N   TRP A   1      -6.688  27.173  -8.445  0.00  0.00    -0.239 NA
ATOM     14  H   TRP A   1      -5.694  27.245  -8.148  0.00  0.00    +0.142 HD
ENDBRANCH  12  13
BRANCH  12  15
ATOM     15  C   TRP A   1      -5.942  27.515 -10.764  0.00  0.00    +0.224 C 
ATOM     16  O   TRP A   1      -4.752  27.564 -10.385  0.00  0.00    -0.287 OA
ENDBRANCH  12  15
ENDBRANCH  11  12
ENDBRANCH   1  11
TORSDOF 4
REMARK  Name = ../refined-set-2016/2bt9/2bt9_pocket.pdb
REMARK  108 active torsions:
REMARK  status: ('A' for Active; 'I' for Inactive)
REMARK    1  A    between atoms: _1  and  _3
REMARK    2  A    between atoms: _3  and  _4
REMARK    3  A    between atoms: _3  and  _6
REMARK    4  A    between atoms: _6  and  _7
REMARK    5  A    between atoms: _10  and  _12
REMARK    6  A    between atoms: _12  and  _13
REMARK    7  A    between atoms: _12  and  _15
REMARK    8  A    between atoms: _15  and  _16
REMARK    9  A    between atoms: _26  and  _28
REMARK   10  A    between atoms: _28  and  _29
REMARK   11  A    between atoms: _28  and  _31
REMARK   12  A    between atoms: _31  and  _32
REMARK   13  A    between atoms: _34  and  _36
REMARK   14  A    between atoms: _36  and  _37
REMARK   15  A    between atoms: _36  and  _39
REMARK   16  A    between atoms: _39  and  _40
REMARK   17  A    between atoms: _43  and  _45
REMARK   18  A    between atoms: _45  and  _46
REMARK   19  A    between atoms: _45  and  _48
REMARK   20  A    between atoms: _48  and  _49
REMARK   21  A    between atoms: _49  and  _50
REMARK   22  A    between atoms: _50  and  _51
REMARK   23  A    between atoms: _60  and  _62
REMARK   24  A    between atoms: _62  and  _63
REMARK   25  A    between atoms: _62  and  _65
REMARK   26  A    between atoms: _68  and  _70
REMARK   27  A    between atoms: _70  and  _71
REMARK   28  A    between atoms: _70  and  _73
REMARK   29  A    between atoms: _73  and  _74
REMARK   30  A    between atoms: _79  and  _80
REMARK   31  A    between atoms: _82  and  _84
REMARK   32  A    between atoms: _84  and  _85
REMARK   33  A    between atoms: _84  and  _87
REMARK   34  A    between atoms: _87  and  _88
REMARK   35  A    between atoms: _88  and  _89
REMARK   36  A    between atoms: _92  and  _94
REMARK   37  A    between atoms: _94  and  _95
REMARK   38  A    between atoms: _94  and  _97
REMARK   39  A    between atoms: _97  and  _98
REMARK   40  A    between atoms: _98  and  _99
REMARK   41  A    between atoms: _99  and  _100
REMARK   42  A    between atoms: _109  and  _111
REMARK   43  A    between atoms: _111  and  _112
REMARK   44  A    between atoms: _111  and  _114
REMARK   45  A    between atoms: _116  and  _118
REMARK   46  A    between atoms: _118  and  _119
REMARK   47  A    between atoms: _118  and  _121
REMARK   48  A    between atoms: _121  and  _122
REMARK   49  A    between atoms: _132  and  _134
REMARK   50  A    between atoms: _134  and  _135
REMARK   51  A    between atoms: _134  and  _137
REMARK   52  A    between atoms: _137  and  _138
REMARK   53  A    between atoms: _141  and  _143
REMARK   54  A    between atoms: _143  and  _144
REMARK   55  A    between atoms: _143  and  _146
REMARK   56  A    between atoms: _146  and  _147
REMARK   57  A    between atoms: _152  and  _153
REMARK   58  A    between atoms: _155  and  _157
REMARK   59  A    between atoms: _157  and  _158
REMARK   60  A    between atoms: _157  and  _160
REMARK   61  A    between atoms: _160  and  _161
REMARK   62  A    between atoms: _164  and  _166
REMARK   63  A    between atoms: _166  and  _167
REMARK   64  A    between atoms: _169  and  _171
REMARK   65  A    between atoms: _171  and  _172
REMARK   66  A    between atoms: _175  and  _177
REMARK   67  A    between atoms: _177  and  _178
REMARK   68  A    between atoms: _177  and  _180
REMARK   69  A    between atoms: _180  and  _181
REMARK   70  A    between atoms: _187  and  _189
REMARK   71  A    between atoms: _189  and  _190
REMARK   72  A    between atoms: _189  and  _192
REMARK   73  A    between atoms: _192  and  _193
REMARK   74  A    between atoms: _198  and  _200
REMARK   75  A    between atoms: _200  and  _201
REMARK   76  A    between atoms: _200  and  _203
REMARK   77  A    between atoms: _203  and  _204
REMARK   78  A    between atoms: _207  and  _209
REMARK   79  A    between atoms: _209  and  _210
REMARK   80  A    between atoms: _209  and  _212
REMARK   81  A    between atoms: _212  and  _213
REMARK   82  A    between atoms: _218  and  _220
REMARK   83  A    between atoms: _220  and  _221
REMARK   84  A    between atoms: _220  and  _223
REMARK   85  A    between atoms: _223  and  _224
REMARK   86  A    between atoms: _227  and  _229
REMARK   87  A    between atoms: _229  and  _230
REMARK   88  A    between atoms: _229  and  _232
REMARK   89  A    between atoms: _235  and  _237
REMARK   90  A    between atoms: _237  and  _238
REMARK   91  A    between atoms: _237  and  _240
REMARK   92  A    between atoms: _240  and  _241
REMARK   93  A    between atoms: _251  and  _253
REMARK   94  A    between atoms: _253  and  _254
REMARK   95  A    between atoms: _253  and  _256
REMARK   96  A    between atoms: _256  and  _257
REMARK   97  A    between atoms: _260  and  _262
REMARK   98  A    between atoms: _262  and  _263
REMARK   99  A    between atoms: _265  and  _267
REMARK  100  A    between atoms: _267  and  _268
REMARK  101  A    between atoms: _267  and  _270
REMARK  102  A    between atoms: _270  and  _271
REMARK  103  A    between atoms: _276  and  _278
REMARK  104  A    between atoms: _278  and  _279
REMARK  105  A    between atoms: _281  and  _283
REMARK  106  A    between atoms: _283  and  _284
REMARK  107  A    between atoms: _283  and  _286
REMARK  108  A    between atoms: _286  and  _287
REMARK                            x       y       z     vdW  Elec       q    Type
REMARK                         _______ _______ _______ _____ _____    ______ ____
ROOT
ATOM      1  CA  ARG A   3      -4.975  28.911  -0.943  0.00  0.00    +0.149 C 
ENDROOT
BRANCH   1   3
ATOM      2  C   ILE A   2      -3.663  28.126  -2.862  0.00  0.00    +0.241 C 
ATOM      3  N   ARG A   3      -4.827  28.173  -2.188  0.00  0.00    -0.297 N 
ATOM      4  H   ARG A   3      -5.649  27.664  -2.571  0.00  0.00    +0.150 HD
ATOM      5  O   ILE A   2      -2.677  28.809  -2.559  0.00  0.00    -0.273 OA
BRANCH   2   6
ATOM      6  CA  ILE A   2      -3.580  27.116  -3.990  0.00  0.00    +0.148 C 
BRANCH   6   8
ATOM      7  C   SER A   1      -3.208  27.763  -6.337  0.00  0.00    +0.241 C 
ATOM      8  N   ILE A   2      -2.815  27.728  -5.085  0.00  0.00    -0.297 N 
ATOM      9  H   ILE A   2      -1.900  28.163  -4.852  0.00  0.00    +0.150 HD
ATOM     10  O   SER A   1      -4.272  27.270  -6.744  0.00  0.00    -0.274 OA
BRANCH   7  11
ATOM     11  CA  SER A   1      -2.296  28.480  -7.333  0.00  0.00    +0.174 C 
BRANCH  11  12
ATOM     12  N   SER A   1      -2.289  27.764  -8.581  0.00  0.00    -0.236 NA
ATOM     13  H   SER A   1      -2.987  28.000  -9.315  0.00  0.00    +0.142 HD
ENDBRANCH  11  12
BRANCH  11  14
ATOM     14  CB  SER A   1      -2.771  29.919  -7.518  0.00  0.00    +0.163 C 
BRANCH  14  15
ATOM     15  OG  SER A   1      -1.763  30.741  -8.088  0.00  0.00    -0.380 OA
ATOM     16  H   SER A   1      -1.508  30.382  -8.975  0.00  0.00    +0.211 HD
ENDBRANCH  14  15
ENDBRANCH  11  14
ENDBRANCH   7  11
ENDBRANCH   6   8
BRANCH   6  17
ATOM     17  CB  ILE A   2      -2.962  25.818  -3.480  0.00  0.00    +0.027 C 
ATOM     18  CG2 ILE A   2      -3.866  25.177  -2.419  0.00  0.00    +0.002 C 
BRANCH  17  19
ATOM     19  CG1 ILE A   2      -2.665  24.851  -4.641  0.00  0.00    +0.002 C 
ATOM     20  CD1 ILE A   2      -1.893  23.618  -4.228  0.00  0.00    +0.000 C 
ENDBRANCH  17  19
ENDBRANCH   6  17
ENDBRANCH   2   6
ENDBRANCH   1   3
BRANCH   1  21
ATOM     21  C   ARG A   3      -5.584  27.964   0.075  0.00  0.00    +0.241 C 
ATOM     22  N   VAL A   4      -4.961  27.905   1.255  0.00  0.00    -0.297 N 
ATOM     23  H   VAL A   4      -4.117  28.495   1.399  0.00  0.00    +0.150 HD
ATOM     24  O   ARG A   3      -6.579  27.298  -0.218  0.00  0.00    -0.273 OA
BRANCH  22  25
ATOM     25  CA  VAL A   4      -5.410  27.050   2.355  0.00  0.00    +0.149 C 
BRANCH  25  26
ATOM     26  C   VAL A   4      -5.685  27.957   3.536  0.00  0.00    +0.241 C 
ATOM     27  N   TYR A   5      -6.919  27.908   4.035  0.00  0.00    -0.298 N 
ATOM     28  H   TYR A   5      -7.599  27.255   3.597  0.00  0.00    +0.150 HD
ATOM     29  O   VAL A   4      -4.796  28.692   3.988  0.00  0.00    -0.273 OA
BRANCH  27  30
ATOM     30  CA  TYR A   5      -7.369  28.714   5.156  0.00  0.00    +0.141 C 
BRANCH  30  31
ATOM     31  C   TYR A   5      -7.445  27.811   6.370  0.00  0.00    +0.227 C 
ATOM     32  O   TYR A   5      -7.978  26.693   6.273  0.00  0.00    -0.286 OA
ENDBRANCH  30  31
BRANCH  30  33
ATOM     33  CB  TYR A   5      -8.787  29.333   4.864  0.00  0.00    +0.054 C 
BRANCH  33  34
ATOM     34  CG  TYR A   5      -8.688  30.180   3.650  0.00  0.00    -0.020 A 
ATOM     35  CD2 TYR A   5      -8.330  31.511   3.729  0.00  0.00    -0.001 A 
ATOM     36  CE2 TYR A   5      -8.179  32.298   2.579  0.00  0.00    +0.036 A 
ATOM     37  CZ  TYR A   5      -8.310  31.714   1.333  0.00  0.00    +0.134 A 
ATOM     38  CE1 TYR A   5      -8.649  30.380   1.240  0.00  0.00    +0.036 A 
ATOM     39  CD1 TYR A   5      -8.870  29.626   2.376  0.00  0.00    -0.001 A 
BRANCH  37  40
ATOM     40  OH  TYR A   5      -8.066  32.417   0.175  0.00  0.00    -0.506 OA
ATOM     41  HH  TYR A   5      -7.837  33.353   0.401  0.00  0.00    +0.292 HD
ENDBRANCH  37  40
ENDBRANCH  33  34
ENDBRANCH  30  33
ENDBRANCH  27  30
ENDBRANCH  25  26
BRANCH  25  42
ATOM     42  CB  VAL A   4      -4.383  25.990   2.725  0.00  0.00    +0.027 C 
ATOM     43  CG2 VAL A   4      -4.887  25.104   3.873  0.00  0.00    +0.002 C 
ATOM     44  CG1 VAL A   4      -4.021  25.110   1.529  0.00  0.00    +0.002 C 
ENDBRANCH  25  42
ENDBRANCH  22  25
ENDBRANCH   1  21
BRANCH   1  45
ATOM     45  CB  ARG A   3      -5.857  30.146  -1.091  0.00  0.00    +0.033 C 
BRANCH  45  46
ATOM     46  CG  ARG A   3      -5.326  31.137  -2.122  0.00  0.00    +0.045 C 
BRANCH  46  47
ATOM     47  CD  ARG A   3      -4.032  31.813  -1.669  0.00  0.00    +0.174 C 
BRANCH  47  48
ATOM     48  NE  ARG A   3      -3.551  32.823  -2.618  0.00  0.00    -0.265 N 
ATOM     49  HE  ARG A   3      -3.894  33.797  -2.499  0.00  0.00    +0.259 HD
ATOM     50  CZ  ARG A   3      -2.709  32.585  -3.618  0.00  0.00    +0.342 C 
ATOM     51  NH2 ARG A   3      -2.225  31.368  -3.875  0.00  0.00    -0.292 N 
ATOM     52 HH21 ARG A   3      -2.505  30.561  -3.282  0.00  0.00    +0.255 HD
ATOM     53 HH22 ARG A   3      -1.568  31.227  -4.669  0.00  0.00    +0.255 HD
ATOM     54  NH1 ARG A   3      -2.354  33.596  -4.424  0.00  0.00    -0.292 N 
ATOM     55 HH11 ARG A   3      -2.737  34.549  -4.262  0.00  0.00    +0.255 HD
ATOM     56 HH12 ARG A   3      -1.696  33.427  -5.211  0.00  0.00    +0.255 HD
ENDBRANCH  47  48
ENDBRANCH  46  47
ENDBRANCH  45  46
ENDBRANCH   1  45
TORSDOF 22
REMARK  Name = ../refined-set-2016/2bt9/2bt9_pocket.pdb
REMARK  108 active torsions:
REMARK  status: ('A' for Active; 'I' for Inactive)
REMARK    1  A    between atoms: _1  and  _3
REMARK    2  A    between atoms: _3  and  _4
REMARK    3  A    between atoms: _3  and  _6
REMARK    4  A    between atoms: _6  and  _7
REMARK    5  A    between atoms: _10  and  _12
REMARK    6  A    between atoms: _12  and  _13
REMARK    7  A    between atoms: _12  and  _15
REMARK    8  A    between atoms: _15  and  _16
REMARK    9  A    between atoms: _26  and  _28
REMARK   10  A    between atoms: _28  and  _29
REMARK   11  A    between atoms: _28  and  _31
REMARK   12  A    between atoms: _31  and  _32
REMARK   13  A    between atoms: _34  and  _36
REMARK   14  A    between atoms: _36  and  _37
REMARK   15  A    between atoms: _36  and  _39
REMARK   16  A    between atoms: _39  and  _40
REMARK   17  A    between atoms: _43  and  _45
REMARK   18  A    between atoms: _45  and  _46
REMARK   19  A    between atoms: _45  and  _48
REMARK   20  A    between atoms: _48  and  _49
REMARK   21  A    between atoms: _49  and  _50
REMARK   22  A    between atoms: _50  and  _51
REMARK   23  A    between atoms: _60  and  _62
REMARK   24  A    between atoms: _62  and  _63
REMARK   25  A    between atoms: _62  and  _65
REMARK   26  A    between atoms: _68  and  _70
REMARK   27  A    between atoms: _70  and  _71
REMARK   28  A    between atoms: _70  and  _73
REMARK   29  A    between atoms: _73  and  _74
REMARK   30  A    between atoms: _79  and  _80
REMARK   31  A    between atoms: _82  and  _84
REMARK   32  A    between atoms: _84  and  _85
REMARK   33  A    between atoms: _84  and  _87
REMARK   34  A    between atoms: _87  and  _88
REMARK   35  A    between atoms: _88  and  _89
REMARK   36  A    between atoms: _92  and  _94
REMARK   37  A    between atoms: _94  and  _95
REMARK   38  A    between atoms: _94  and  _97
REMARK   39  A    between atoms: _97  and  _98
REMARK   40  A    between atoms: _98  and  _99
REMARK   41  A    between atoms: _99  and  _100
REMARK   42  A    between atoms: _109  and  _111
REMARK   43  A    between atoms: _111  and  _112
REMARK   44  A    between atoms: _111  and  _114
REMARK   45  A    between atoms: _116  and  _118
REMARK   46  A    between atoms: _118  and  _119
REMARK   47  A    between atoms: _118  and  _121
REMARK   48  A    between atoms: _121  and  _122
REMARK   49  A    between atoms: _132  and  _134
REMARK   50  A    between atoms: _134  and  _135
REMARK   51  A    between atoms: _134  and  _137
REMARK   52  A    between atoms: _137  and  _138
REMARK   53  A    between atoms: _141  and  _143
REMARK   54  A    between atoms: _143  and  _144
REMARK   55  A    between atoms: _143  and  _146
REMARK   56  A    between atoms: _146  and  _147
REMARK   57  A    between atoms: _152  and  _153
REMARK   58  A    between atoms: _155  and  _157
REMARK   59  A    between atoms: _157  and  _158
REMARK   60  A    between atoms: _157  and  _160
REMARK   61  A    between atoms: _160  and  _161
REMARK   62  A    between atoms: _164  and  _166
REMARK   63  A    between atoms: _166  and  _167
REMARK   64  A    between atoms: _169  and  _171
REMARK   65  A    between atoms: _171  and  _172
REMARK   66  A    between atoms: _175  and  _177
REMARK   67  A    between atoms: _177  and  _178
REMARK   68  A    between atoms: _177  and  _180
REMARK   69  A    between atoms: _180  and  _181
REMARK   70  A    between atoms: _187  and  _189
REMARK   71  A    between atoms: _189  and  _190
REMARK   72  A    between atoms: _189  and  _192
REMARK   73  A    between atoms: _192  and  _193
REMARK   74  A    between atoms: _198  and  _200
REMARK   75  A    between atoms: _200  and  _201
REMARK   76  A    between atoms: _200  and  _203
REMARK   77  A    between atoms: _203  and  _204
REMARK   78  A    between atoms: _207  and  _209
REMARK   79  A    between atoms: _209  and  _210
REMARK   80  A    between atoms: _209  and  _212
REMARK   81  A    between atoms: _212  and  _213
REMARK   82  A    between atoms: _218  and  _220
REMARK   83  A    between atoms: _220  and  _221
REMARK   84  A    between atoms: _220  and  _223
REMARK   85  A    between atoms: _223  and  _224
REMARK   86  A    between atoms: _227  and  _229
REMARK   87  A    between atoms: _229  and  _230
REMARK   88  A    between atoms: _229  and  _232
REMARK   89  A    between atoms: _235  and  _237
REMARK   90  A    between atoms: _237  and  _238
REMARK   91  A    between atoms: _237  and  _240
REMARK   92  A    between atoms: _240  and  _241
REMARK   93  A    between atoms: _251  and  _253
REMARK   94  A    between atoms: _253  and  _254
REMARK   95  A    between atoms: _253  and  _256
REMARK   96  A    between atoms: _256  and  _257
REMARK   97  A    between atoms: _260  and  _262
REMARK   98  A    between atoms: _262  and  _263
REMARK   99  A    between atoms: _265  and  _267
REMARK  100  A    between atoms: _267  and  _268
REMARK  101  A    between atoms: _267  and  _270
REMARK  102  A    between atoms: _270  and  _271
REMARK  103  A    between atoms: _276  and  _278
REMARK  104  A    between atoms: _278  and  _279
REMARK  105  A    between atoms: _281  and  _283
REMARK  106  A    between atoms: _283  and  _284
REMARK  107  A    between atoms: _283  and  _286
REMARK  108  A    between atoms: _286  and  _287
REMARK                            x       y       z     vdW  Elec       q    Type
REMARK                         _______ _______ _______ _____ _____    ______ ____
ROOT
ATOM      1  CA  CYS A   3      -0.531  30.382  -0.352  0.00  0.00    +0.160 C 
ENDROOT
BRANCH   1   2
ATOM      2  C   CYS A   3       0.591  29.717  -1.115  0.00  0.00    +0.242 C 
ATOM      3  O   CYS A   3       1.763  29.773  -0.694  0.00  0.00    -0.273 OA
ATOM      4  N   TRP A   4       0.255  29.137  -2.255  0.00  0.00    -0.297 N 
ATOM      5  H   TRP A   4      -0.756  29.101  -2.497  0.00  0.00    +0.150 HD
BRANCH   4   6
ATOM      6  CA  TRP A   4       1.190  28.547  -3.193  0.00  0.00    +0.153 C 
BRANCH   6   7
ATOM      7  C   TRP A   4       0.900  29.097  -4.570  0.00  0.00    +0.241 C 
ATOM      8  O   TRP A   4      -0.250  29.033  -5.028  0.00  0.00    -0.273 OA
ATOM      9  N   ASP A   5       1.932  29.623  -5.233  0.00  0.00    -0.298 N 
ATOM     10  H   ASP A   5       2.850  29.701  -4.751  0.00  0.00    +0.150 HD
BRANCH   9  11
ATOM     11  CA  ASP A   5       1.819  30.092  -6.610  0.00  0.00    +0.148 C 
BRANCH  11  12
ATOM     12  C   ASP A   5       2.907  29.443  -7.472  0.00  0.00    +0.227 C 
ATOM     13  O   ASP A   5       3.201  29.969  -8.571  0.00  0.00    -0.286 OA
ENDBRANCH  11  12
BRANCH  11  14
ATOM     14  CB  ASP A   5       1.921  31.612  -6.698  0.00  0.00    +0.142 C 
BRANCH  14  15
ATOM     15  CG  ASP A   5       0.801  32.366  -6.032  0.00  0.00    +0.367 C 
ATOM     16  OD2 ASP A   5       1.128  33.459  -5.445  0.00  0.00    -0.246 OA
ATOM     17  OD1 ASP A   5      -0.377  31.966  -6.108  0.00  0.00    -0.246 OA
ENDBRANCH  14  15
ENDBRANCH  11  14
ENDBRANCH   9  11
ENDBRANCH   6   7
BRANCH   6  18
ATOM     18  CB  TRP A   4       0.991  27.028  -3.250  0.00  0.00    +0.057 C 
BRANCH  18  19
ATOM     19  CG  TRP A   4       1.826  26.310  -4.254  0.00  0.00    -0.002 A 
ATOM     20  CD2 TRP A   4       3.150  25.795  -4.062  0.00  0.00    +0.013 A 
ATOM     21  CE3 TRP A   4       4.011  25.747  -2.949  0.00  0.00    +0.001 A 
ATOM     22  CZ3 TRP A   4       5.222  25.112  -3.093  0.00  0.00    +0.000 A 
ATOM     23  CH2 TRP A   4       5.608  24.506  -4.290  0.00  0.00    +0.001 A 
ATOM     24  CZ2 TRP A   4       4.802  24.533  -5.416  0.00  0.00    +0.017 A 
ATOM     25  CE2 TRP A   4       3.561  25.166  -5.257  0.00  0.00    +0.056 A 
ATOM     26  NE1 TRP A   4       2.523  25.324  -6.170  0.00  0.00    -0.352 N 
ATOM     27  HE1 TRP A   4       2.521  24.982  -7.152  0.00  0.00    +0.166 HD
ATOM     28  CD1 TRP A   4       1.487  26.017  -5.549  0.00  0.00    +0.068 A 
ENDBRANCH  18  19
ENDBRANCH   6  18
ENDBRANCH   4   6
ENDBRANCH   1   2
BRANCH   1  31
ATOM     29  C   ARG A   2      -1.394  29.844   1.849  0.00  0.00    +0.241 C 
ATOM     30  O   ARG A   2      -2.485  29.369   1.413  0.00  0.00    -0.273 OA
ATOM     31  N   CYS A   3      -0.390  30.186   1.061  0.00  0.00    -0.296 N 
ATOM     32  H   CYS A   3       0.549  30.320   1.487  0.00  0.00    +0.150 HD
BRANCH  29  33
ATOM     33  CA  ARG A   2      -1.171  30.031   3.330  0.00  0.00    +0.149 C 
BRANCH  33  36
ATOM     34  C   GLU A   1      -2.674  31.539   4.584  0.00  0.00    +0.238 C 
ATOM     35  O   GLU A   1      -1.766  32.358   4.809  0.00  0.00    -0.274 OA
ATOM     36  N   ARG A   2      -2.452  30.396   3.936  0.00  0.00    -0.297 N 
ATOM     37  H   ARG A   2      -3.239  29.721   3.856  0.00  0.00    +0.150 HD
BRANCH  34  38
ATOM     38  CA  GLU A   1      -4.102  31.829   4.974  0.00  0.00    +0.145 C 
BRANCH  38  39
ATOM     39  N   GLU A   1      -4.162  32.295   6.344  0.00  0.00    -0.238 NA
ATOM     40  H   GLU A   1      -3.468  33.003   6.658  0.00  0.00    +0.142 HD
ENDBRANCH  38  39
BRANCH  38  41
ATOM     41  CB  GLU A   1      -4.677  32.914   4.060  0.00  0.00    +0.038 C 
BRANCH  41  42
ATOM     42  CG  GLU A   1      -4.707  32.610   2.591  0.00  0.00    +0.116 C 
BRANCH  42  43
ATOM     43  CD  GLU A   1      -5.004  33.847   1.768  0.00  0.00    +0.365 C 
ATOM     44  OE2 GLU A   1      -4.411  34.915   2.066  0.00  0.00    -0.246 OA
ATOM     45  OE1 GLU A   1      -5.781  33.745   0.759  0.00  0.00    -0.246 OA
ENDBRANCH  42  43
ENDBRANCH  41  42
ENDBRANCH  38  41
ENDBRANCH  34  38
ENDBRANCH  33  36
BRANCH  33  46
ATOM     46  CB  ARG A   2      -0.596  28.795   4.012  0.00  0.00    +0.033 C 
BRANCH  46  47
ATOM     47  CG  ARG A   2      -0.163  29.031   5.401  0.00  0.00    +0.045 C 
BRANCH  47  48
ATOM     48  CD  ARG A   2       1.161  29.772   5.552  0.00  0.00    +0.174 C 
BRANCH  48  49
ATOM     49  NE  ARG A   2       2.257  28.843   5.277  0.00  0.00    -0.265 N 
ATOM     50  HE  ARG A   2       2.026  27.830   5.237  0.00  0.00    +0.259 HD
ATOM     51  CZ  ARG A   2       3.546  29.194   5.071  0.00  0.00    +0.342 C 
ATOM     52  NH2 ARG A   2       3.918  30.465   5.059  0.00  0.00    -0.292 N 
ATOM     53 HH21 ARG A   2       3.213  31.215   5.210  0.00  0.00    +0.255 HD
ATOM     54 HH22 ARG A   2       4.915  30.714   4.899  0.00  0.00    +0.255 HD
ATOM     55  NH1 ARG A   2       4.434  28.245   4.878  0.00  0.00    -0.292 N 
ATOM     56 HH11 ARG A   2       4.139  27.248   4.886  0.00  0.00    +0.255 HD
ATOM     57 HH12 ARG A   2       5.432  28.491   4.717  0.00  0.00    +0.255 HD
ENDBRANCH  48  49
ENDBRANCH  47  48
ENDBRANCH  46  47
ENDBRANCH  33  46
ENDBRANCH  29  33
ENDBRANCH   1  31
BRANCH   1  58
ATOM     58  CB  CYS A   3      -0.444  31.868  -0.694  0.00  0.00    +0.098 C 
ATOM     59  SG  CYS A   3      -1.493  32.968   0.268  0.00  0.00    -0.080 S 
ENDBRANCH   1  58
TORSDOF 22
REMARK  Name = ../refined-set-2016/2bt9/2bt9_pocket.pdb
REMARK  108 active torsions:
REMARK  status: ('A' for Active; 'I' for Inactive)
REMARK    1  A    between atoms: _1  and  _3
REMARK    2  A    between atoms: _3  and  _4
REMARK    3  A    between atoms: _3  and  _6
REMARK    4  A    between atoms: _6  and  _7
REMARK    5  A    between atoms: _10  and  _12
REMARK    6  A    between atoms: _12  and  _13
REMARK    7  A    between atoms: _12  and  _15
REMARK    8  A    between atoms: _15  and  _16
REMARK    9  A    between atoms: _26  and  _28
REMARK   10  A    between atoms: _28  and  _29
REMARK   11  A    between atoms: _28  and  _31
REMARK   12  A    between atoms: _31  and  _32
REMARK   13  A    between atoms: _34  and  _36
REMARK   14  A    between atoms: _36  and  _37
REMARK   15  A    between atoms: _36  and  _39
REMARK   16  A    between atoms: _39  and  _40
REMARK   17  A    between atoms: _43  and  _45
REMARK   18  A    between atoms: _45  and  _46
REMARK   19  A    between atoms: _45  and  _48
REMARK   20  A    between atoms: _48  and  _49
REMARK   21  A    between atoms: _49  and  _50
REMARK   22  A    between atoms: _50  and  _51
REMARK   23  A    between atoms: _60  and  _62
REMARK   24  A    between atoms: _62  and  _63
REMARK   25  A    between atoms: _62  and  _65
REMARK   26  A    between atoms: _68  and  _70
REMARK   27  A    between atoms: _70  and  _71
REMARK   28  A    between atoms: _70  and  _73
REMARK   29  A    between atoms: _73  and  _74
REMARK   30  A    between atoms: _79  and  _80
REMARK   31  A    between atoms: _82  and  _84
REMARK   32  A    between atoms: _84  and  _85
REMARK   33  A    between atoms: _84  and  _87
REMARK   34  A    between atoms: _87  and  _88
REMARK   35  A    between atoms: _88  and  _89
REMARK   36  A    between atoms: _92  and  _94
REMARK   37  A    between atoms: _94  and  _95
REMARK   38  A    between atoms: _94  and  _97
REMARK   39  A    between atoms: _97  and  _98
REMARK   40  A    between atoms: _98  and  _99
REMARK   41  A    between atoms: _99  and  _100
REMARK   42  A    between atoms: _109  and  _111
REMARK   43  A    between atoms: _111  and  _112
REMARK   44  A    between atoms: _111  and  _114
REMARK   45  A    between atoms: _116  and  _118
REMARK   46  A    between atoms: _118  and  _119
REMARK   47  A    between atoms: _118  and  _121
REMARK   48  A    between atoms: _121  and  _122
REMARK   49  A    between atoms: _132  and  _134
REMARK   50  A    between atoms: _134  and  _135
REMARK   51  A    between atoms: _134  and  _137
REMARK   52  A    between atoms: _137  and  _138
REMARK   53  A    between atoms: _141  and  _143
REMARK   54  A    between atoms: _143  and  _144
REMARK   55  A    between atoms: _143  and  _146
REMARK   56  A    between atoms: _146  and  _147
REMARK   57  A    between atoms: _152  and  _153
REMARK   58  A    between atoms: _155  and  _157
REMARK   59  A    between atoms: _157  and  _158
REMARK   60  A    between atoms: _157  and  _160
REMARK   61  A    between atoms: _160  and  _161
REMARK   62  A    between atoms: _164  and  _166
REMARK   63  A    between atoms: _166  and  _167
REMARK   64  A    between atoms: _169  and  _171
REMARK   65  A    between atoms: _171  and  _172
REMARK   66  A    between atoms: _175  and  _177
REMARK   67  A    between atoms: _177  and  _178
REMARK   68  A    between atoms: _177  and  _180
REMARK   69  A    between atoms: _180  and  _181
REMARK   70  A    between atoms: _187  and  _189
REMARK   71  A    between atoms: _189  and  _190
REMARK   72  A    between atoms: _189  and  _192
REMARK   73  A    between atoms: _192  and  _193
REMARK   74  A    between atoms: _198  and  _200
REMARK   75  A    between atoms: _200  and  _201
REMARK   76  A    between atoms: _200  and  _203
REMARK   77  A    between atoms: _203  and  _204
REMARK   78  A    between atoms: _207  and  _209
REMARK   79  A    between atoms: _209  and  _210
REMARK   80  A    between atoms: _209  and  _212
REMARK   81  A    between atoms: _212  and  _213
REMARK   82  A    between atoms: _218  and  _220
REMARK   83  A    between atoms: _220  and  _221
REMARK   84  A    between atoms: _220  and  _223
REMARK   85  A    between atoms: _223  and  _224
REMARK   86  A    between atoms: _227  and  _229
REMARK   87  A    between atoms: _229  and  _230
REMARK   88  A    between atoms: _229  and  _232
REMARK   89  A    between atoms: _235  and  _237
REMARK   90  A    between atoms: _237  and  _238
REMARK   91  A    between atoms: _237  and  _240
REMARK   92  A    between atoms: _240  and  _241
REMARK   93  A    between atoms: _251  and  _253
REMARK   94  A    between atoms: _253  and  _254
REMARK   95  A    between atoms: _253  and  _256
REMARK   96  A    between atoms: _256  and  _257
REMARK   97  A    between atoms: _260  and  _262
REMARK   98  A    between atoms: _262  and  _263
REMARK   99  A    between atoms: _265  and  _267
REMARK  100  A    between atoms: _267  and  _268
REMARK  101  A    between atoms: _267  and  _270
REMARK  102  A    between atoms: _270  and  _271
REMARK  103  A    between atoms: _276  and  _278
REMARK  104  A    between atoms: _278  and  _279
REMARK  105  A    between atoms: _281  and  _283
REMARK  106  A    between atoms: _283  and  _284
REMARK  107  A    between atoms: _283  and  _286
REMARK  108  A    between atoms: _286  and  _287
REMARK                            x       y       z     vdW  Elec       q    Type
REMARK                         _______ _______ _______ _____ _____    ______ ____
ROOT
ATOM      1  C   GLY A   3      -1.858  36.548   3.553  0.00  0.00    +0.243 C 
ATOM      2  O   GLY A   3      -1.742  36.553   4.781  0.00  0.00    -0.273 OA
ATOM      3  N   ALA A   4      -2.494  37.492   2.905  0.00  0.00    -0.297 N 
ATOM      4  H   ALA A   4      -2.592  37.407   1.873  0.00  0.00    +0.150 HD
ENDROOT
BRANCH   3   5
ATOM      5  CA  ALA A   4      -3.072  38.658   3.566  0.00  0.00    +0.149 C 
ATOM      6  CB  ALA A   4      -3.414  39.716   2.535  0.00  0.00    +0.031 C 
BRANCH   5   7
ATOM      7  C   ALA A   4      -4.297  38.347   4.400  0.00  0.00    +0.241 C 
ATOM      8  O   ALA A   4      -4.650  39.140   5.267  0.00  0.00    -0.273 OA
ATOM      9  N   PHE A   5      -5.021  37.254   4.122  0.00  0.00    -0.297 N 
ATOM     10  H   PHE A   5      -4.677  36.553   3.435  0.00  0.00    +0.150 HD
BRANCH   9  11
ATOM     11  CA  PHE A   5      -6.305  37.061   4.801  0.00  0.00    +0.153 C 
BRANCH  11  12
ATOM     12  C   PHE A   5      -6.078  36.746   6.266  0.00  0.00    +0.241 C 
ATOM     13  N   ASN A   6      -6.712  37.503   7.136  0.00  0.00    -0.298 N 
ATOM     14  H   ASN A   6      -7.295  38.293   6.794  0.00  0.00    +0.150 HD
ATOM     15  O   PHE A   5      -5.380  35.772   6.596  0.00  0.00    -0.273 OA
BRANCH  13  16
ATOM     16  CA  ASN A   6      -6.614  37.258   8.568  0.00  0.00    +0.146 C 
BRANCH  16  17
ATOM     17  C   ASN A   6      -7.862  37.831   9.225  0.00  0.00    +0.227 C 
ATOM     18  O   ASN A   6      -7.996  39.066   9.300  0.00  0.00    -0.286 OA
ENDBRANCH  16  17
BRANCH  16  19
ATOM     19  CB  ASN A   6      -5.331  37.897   9.079  0.00  0.00    +0.112 C 
BRANCH  19  20
ATOM     20  CG  ASN A   6      -5.089  37.628  10.533  0.00  0.00    +0.222 C 
ATOM     21  OD1 ASN A   6      -5.965  37.828  11.317  0.00  0.00    -0.275 OA
ATOM     22  ND2 ASN A   6      -3.882  37.196  10.830  0.00  0.00    -0.329 N 
ATOM     23 HD21 ASN A   6      -3.629  37.000  11.819  0.00  0.00    +0.145 HD
ATOM     24 HD22 ASN A   6      -3.181  37.051  10.075  0.00  0.00    +0.145 HD
ENDBRANCH  19  20
ENDBRANCH  16  19
ENDBRANCH  13  16
ENDBRANCH  11  12
BRANCH  11  25
ATOM     25  CB  PHE A   5      -7.056  35.920   4.124  0.00  0.00    +0.055 C 
BRANCH  25  26
ATOM     26  CG  PHE A   5      -8.418  35.754   4.764  0.00  0.00    -0.020 A 
ATOM     27  CD2 PHE A   5      -8.647  34.872   5.800  0.00  0.00    -0.004 A 
ATOM     28  CE2 PHE A   5      -9.893  34.785   6.398  0.00  0.00    -0.000 A 
ATOM     29  CZ  PHE A   5     -10.917  35.549   5.940  0.00  0.00    -0.000 A 
ATOM     30  CE1 PHE A   5     -10.708  36.442   4.899  0.00  0.00    -0.000 A 
ATOM     31  CD1 PHE A   5      -9.462  36.514   4.336  0.00  0.00    -0.004 A 
ENDBRANCH  25  26
ENDBRANCH  11  25
ENDBRANCH   9  11
ENDBRANCH   5   7
ENDBRANCH   3   5
BRANCH   1  32
ATOM     32  CA  GLY A   3      -1.305  35.429   2.697  0.00  0.00    +0.176 C 
BRANCH  32  34
ATOM     33  C   THR A   2       0.820  34.694   3.577  0.00  0.00    +0.243 C 
ATOM     34  N   GLY A   3      -0.491  34.469   3.406  0.00  0.00    -0.295 N 
ATOM     35  H   GLY A   3      -0.922  33.602   3.785  0.00  0.00    +0.150 HD
ATOM     36  O   THR A   2       1.418  35.682   3.148  0.00  0.00    -0.273 OA
BRANCH  33  37
ATOM     37  CA  THR A   2       1.536  33.603   4.315  0.00  0.00    +0.176 C 
BRANCH  37  39
ATOM     38  C   TYR A   1       2.644  32.265   2.636  0.00  0.00    +0.239 C 
ATOM     39  N   THR A   2       2.726  33.202   3.554  0.00  0.00    -0.295 N 
ATOM     40  H   THR A   2       3.639  33.662   3.743  0.00  0.00    +0.150 HD
ATOM     41  O   TYR A   1       1.562  31.712   2.360  0.00  0.00    -0.274 OA
BRANCH  38  42
ATOM     42  CA  TYR A   1       3.929  31.913   1.918  0.00  0.00    +0.149 C 
BRANCH  42  43
ATOM     43  N   TYR A   1       3.757  30.644   1.216  0.00  0.00    -0.238 NA
ATOM     44  H   TYR A   1       2.843  30.438   0.765  0.00  0.00    +0.142 HD
ENDBRANCH  42  43
BRANCH  42  45
ATOM     45  CB  TYR A   1       4.390  33.024   0.959  0.00  0.00    +0.053 C 
BRANCH  45  46
ATOM     46  CG  TYR A   1       3.423  33.371  -0.137  0.00  0.00    -0.020 A 
ATOM     47  CD2 TYR A   1       2.487  34.380   0.081  0.00  0.00    -0.001 A 
ATOM     48  CE2 TYR A   1       1.562  34.715  -0.897  0.00  0.00    +0.036 A 
ATOM     49  CZ  TYR A   1       1.559  34.072  -2.111  0.00  0.00    +0.134 A 
ATOM     50  CE1 TYR A   1       2.489  33.065  -2.329  0.00  0.00    +0.036 A 
ATOM     51  CD1 TYR A   1       3.398  32.708  -1.347  0.00  0.00    -0.001 A 
BRANCH  49  52
ATOM     52  OH  TYR A   1       0.638  34.471  -3.039  0.00  0.00    -0.506 OA
ATOM     53  HH  TYR A   1       1.106  34.796  -3.848  0.00  0.00    +0.292 HD
ENDBRANCH  49  52
ENDBRANCH  45  46
ENDBRANCH  42  45
ENDBRANCH  38  42
ENDBRANCH  37  39
BRANCH  37  54
ATOM     54  CB  THR A   2       1.979  34.045   5.723  0.00  0.00    +0.137 C 
ATOM     55  CG2 THR A   2       0.794  34.491   6.544  0.00  0.00    +0.034 C 
BRANCH  54  56
ATOM     56  OG1 THR A   2       2.625  32.901   6.292  0.00  0.00    -0.382 OA
ATOM     57  HG1 THR A   2       2.937  33.120   7.206  0.00  0.00    +0.210 HD
ENDBRANCH  54  56
ENDBRANCH  37  54
ENDBRANCH  33  37
ENDBRANCH  32  34
ENDBRANCH   1  32
TORSDOF 21
REMARK  Name = ../refined-set-2016/2bt9/2bt9_pocket.pdb
REMARK  108 active torsions:
REMARK  status: ('A' for Active; 'I' for Inactive)
REMARK    1  A    between atoms: _1  and  _3
REMARK    2  A    between atoms: _3  and  _4
REMARK    3  A    between atoms: _3  and  _6
REMARK    4  A    between atoms: _6  and  _7
REMARK    5  A    between atoms: _10  and  _12
REMARK    6  A    between atoms: _12  and  _13
REMARK    7  A    between atoms: _12  and  _15
REMARK    8  A    between atoms: _15  and  _16
REMARK    9  A    between atoms: _26  and  _28
REMARK   10  A    between atoms: _28  and  _29
REMARK   11  A    between atoms: _28  and  _31
REMARK   12  A    between atoms: _31  and  _32
REMARK   13  A    between atoms: _34  and  _36
REMARK   14  A    between atoms: _36  and  _37
REMARK   15  A    between atoms: _36  and  _39
REMARK   16  A    between atoms: _39  and  _40
REMARK   17  A    between atoms: _43  and  _45
REMARK   18  A    between atoms: _45  and  _46
REMARK   19  A    between atoms: _45  and  _48
REMARK   20  A    between atoms: _48  and  _49
REMARK   21  A    between atoms: _49  and  _50
REMARK   22  A    between atoms: _50  and  _51
REMARK   23  A    between atoms: _60  and  _62
REMARK   24  A    between atoms: _62  and  _63
REMARK   25  A    between atoms: _62  and  _65
REMARK   26  A    between atoms: _68  and  _70
REMARK   27  A    between atoms: _70  and  _71
REMARK   28  A    between atoms: _70  and  _73
REMARK   29  A    between atoms: _73  and  _74
REMARK   30  A    between atoms: _79  and  _80
REMARK   31  A    between atoms: _82  and  _84
REMARK   32  A    between atoms: _84  and  _85
REMARK   33  A    between atoms: _84  and  _87
REMARK   34  A    between atoms: _87  and  _88
REMARK   35  A    between atoms: _88  and  _89
REMARK   36  A    between atoms: _92  and  _94
REMARK   37  A    between atoms: _94  and  _95
REMARK   38  A    between atoms: _94  and  _97
REMARK   39  A    between atoms: _97  and  _98
REMARK   40  A    between atoms: _98  and  _99
REMARK   41  A    between atoms: _99  and  _100
REMARK   42  A    between atoms: _109  and  _111
REMARK   43  A    between atoms: _111  and  _112
REMARK   44  A    between atoms: _111  and  _114
REMARK   45  A    between atoms: _116  and  _118
REMARK   46  A    between atoms: _118  and  _119
REMARK   47  A    between atoms: _118  and  _121
REMARK   48  A    between atoms: _121  and  _122
REMARK   49  A    between atoms: _132  and  _134
REMARK   50  A    between atoms: _134  and  _135
REMARK   51  A    between atoms: _134  and  _137
REMARK   52  A    between atoms: _137  and  _138
REMARK   53  A    between atoms: _141  and  _143
REMARK   54  A    between atoms: _143  and  _144
REMARK   55  A    between atoms: _143  and  _146
REMARK   56  A    between atoms: _146  and  _147
REMARK   57  A    between atoms: _152  and  _153
REMARK   58  A    between atoms: _155  and  _157
REMARK   59  A    between atoms: _157  and  _158
REMARK   60  A    between atoms: _157  and  _160
REMARK   61  A    between atoms: _160  and  _161
REMARK   62  A    between atoms: _164  and  _166
REMARK   63  A    between atoms: _166  and  _167
REMARK   64  A    between atoms: _169  and  _171
REMARK   65  A    between atoms: _171  and  _172
REMARK   66  A    between atoms: _175  and  _177
REMARK   67  A    between atoms: _177  and  _178
REMARK   68  A    between atoms: _177  and  _180
REMARK   69  A    between atoms: _180  and  _181
REMARK   70  A    between atoms: _187  and  _189
REMARK   71  A    between atoms: _189  and  _190
REMARK   72  A    between atoms: _189  and  _192
REMARK   73  A    between atoms: _192  and  _193
REMARK   74  A    between atoms: _198  and  _200
REMARK   75  A    between atoms: _200  and  _201
REMARK   76  A    between atoms: _200  and  _203
REMARK   77  A    between atoms: _203  and  _204
REMARK   78  A    between atoms: _207  and  _209
REMARK   79  A    between atoms: _209  and  _210
REMARK   80  A    between atoms: _209  and  _212
REMARK   81  A    between atoms: _212  and  _213
REMARK   82  A    between atoms: _218  and  _220
REMARK   83  A    between atoms: _220  and  _221
REMARK   84  A    between atoms: _220  and  _223
REMARK   85  A    between atoms: _223  and  _224
REMARK   86  A    between atoms: _227  and  _229
REMARK   87  A    between atoms: _229  and  _230
REMARK   88  A    between atoms: _229  and  _232
REMARK   89  A    between atoms: _235  and  _237
REMARK   90  A    between atoms: _237  and  _238
REMARK   91  A    between atoms: _237  and  _240
REMARK   92  A    between atoms: _240  and  _241
REMARK   93  A    between atoms: _251  and  _253
REMARK   94  A    between atoms: _253  and  _254
REMARK   95  A    between atoms: _253  and  _256
REMARK   96  A    between atoms: _256  and  _257
REMARK   97  A    between atoms: _260  and  _262
REMARK   98  A    between atoms: _262  and  _263
REMARK   99  A    between atoms: _265  and  _267
REMARK  100  A    between atoms: _267  and  _268
REMARK  101  A    between atoms: _267  and  _270
REMARK  102  A    between atoms: _270  and  _271
REMARK  103  A    between atoms: _276  and  _278
REMARK  104  A    between atoms: _278  and  _279
REMARK  105  A    between atoms: _281  and  _283
REMARK  106  A    between atoms: _283  and  _284
REMARK  107  A    between atoms: _283  and  _286
REMARK  108  A    between atoms: _286  and  _287
REMARK                            x       y       z     vdW  Elec       q    Type
REMARK                         _______ _______ _______ _____ _____    ______ ____
ROOT
ATOM      1  CA  HIS A   2     -12.355  35.632  -7.276  0.00  0.00    +0.155 C 
ENDROOT
BRANCH   1   4
ATOM      2  C   ILE A   1     -10.271  35.724  -8.592  0.00  0.00    +0.238 C 
ATOM      3  O   ILE A   1     -10.000  36.865  -8.223  0.00  0.00    -0.274 OA
ATOM      4  N   HIS A   2     -11.376  35.100  -8.226  0.00  0.00    -0.297 N 
ATOM      5  H   HIS A   2     -11.564  34.165  -8.642  0.00  0.00    +0.150 HD
BRANCH   2   6
ATOM      6  CA  ILE A   1      -9.358  34.905  -9.472  0.00  0.00    +0.145 C 
BRANCH   6   7
ATOM      7  N   ILE A   1      -8.737  35.692 -10.519  0.00  0.00    -0.238 NA
ATOM      8  H   ILE A   1      -7.772  36.057 -10.390  0.00  0.00    +0.142 HD
ENDBRANCH   6   7
BRANCH   6   9
ATOM      9  CB  ILE A   1      -8.277  34.166  -8.616  0.00  0.00    +0.025 C 
ATOM     10  CG2 ILE A   1      -7.468  35.118  -7.785  0.00  0.00    +0.002 C 
BRANCH   9  11
ATOM     11  CG1 ILE A   1      -8.887  33.065  -7.756  0.00  0.00    +0.002 C 
ATOM     12  CD1 ILE A   1      -9.576  31.943  -8.496  0.00  0.00    +0.000 C 
ENDBRANCH   9  11
ENDBRANCH   6   9
ENDBRANCH   2   6
ENDBRANCH   1   4
BRANCH   1  13
ATOM     13  C   HIS A   2     -12.551  34.565  -6.209  0.00  0.00    +0.241 C 
ATOM     14  N   ILE A   3     -12.343  34.949  -4.957  0.00  0.00    -0.298 N 
ATOM     15  H   ILE A   3     -12.128  35.949  -4.769  0.00  0.00    +0.150 HD
ATOM     16  O   HIS A   2     -12.840  33.409  -6.528  0.00  0.00    -0.273 OA
BRANCH  14  17
ATOM     17  CA  ILE A   3     -12.405  34.021  -3.835  0.00  0.00    +0.137 C 
BRANCH  17  18
ATOM     18  C   ILE A   3     -13.479  34.516  -2.860  0.00  0.00    +0.227 C 
ATOM     19  O   ILE A   3     -13.579  35.709  -2.609  0.00  0.00    -0.286 OA
ENDBRANCH  17  18
BRANCH  17  20
ATOM     20  CB  ILE A   3     -11.054  33.921  -3.094  0.00  0.00    +0.026 C 
ATOM     21  CG2 ILE A   3     -11.126  32.812  -2.028  0.00  0.00    +0.002 C 
BRANCH  20  22
ATOM     22  CG1 ILE A   3      -9.894  33.674  -4.052  0.00  0.00    +0.002 C 
ATOM     23  CD1 ILE A   3      -8.514  33.729  -3.395  0.00  0.00    +0.000 C 
ENDBRANCH  20  22
ENDBRANCH  17  20
ENDBRANCH  14  17
ENDBRANCH   1  13
BRANCH   1  24
ATOM     24  CB  HIS A   2     -13.676  35.879  -8.019  0.00  0.00    +0.076 C 
BRANCH  24  25
ATOM     25  CG  HIS A   2     -13.505  36.946  -9.070  0.00  0.00    +0.082 A 
ATOM     26  ND1 HIS A   2     -13.751  38.275  -8.837  0.00  0.00    -0.227 NA
ATOM     27  CE1 HIS A   2     -13.477  38.973  -9.934  0.00  0.00    +0.199 A 
ATOM     28  NE2 HIS A   2     -13.051  38.137 -10.871  0.00  0.00    -0.221 NA
ATOM     29  CD2 HIS A   2     -13.081  36.858 -10.328  0.00  0.00    +0.115 A 
ENDBRANCH  24  25
ENDBRANCH   1  24
TORSDOF 12
REMARK  Name = ../refined-set-2016/2bt9/2bt9_pocket.pdb
REMARK  108 active torsions:
REMARK  status: ('A' for Active; 'I' for Inactive)
REMARK    1  A    between atoms: _1  and  _3
REMARK    2  A    between atoms: _3  and  _4
REMARK    3  A    between atoms: _3  and  _6
REMARK    4  A    between atoms: _6  and  _7
REMARK    5  A    between atoms: _10  and  _12
REMARK    6  A    between atoms: _12  and  _13
REMARK    7  A    between atoms: _12  and  _15
REMARK    8  A    between atoms: _15  and  _16
REMARK    9  A    between atoms: _26  and  _28
REMARK   10  A    between atoms: _28  and  _29
REMARK   11  A    between atoms: _28  and  _31
REMARK   12  A    between atoms: _31  and  _32
REMARK   13  A    between atoms: _34  and  _36
REMARK   14  A    between atoms: _36  and  _37
REMARK   15  A    between atoms: _36  and  _39
REMARK   16  A    between atoms: _39  and  _40
REMARK   17  A    between atoms: _43  and  _45
REMARK   18  A    between atoms: _45  and  _46
REMARK   19  A    between atoms: _45  and  _48
REMARK   20  A    between atoms: _48  and  _49
REMARK   21  A    between atoms: _49  and  _50
REMARK   22  A    between atoms: _50  and  _51
REMARK   23  A    between atoms: _60  and  _62
REMARK   24  A    between atoms: _62  and  _63
REMARK   25  A    between atoms: _62  and  _65
REMARK   26  A    between atoms: _68  and  _70
REMARK   27  A    between atoms: _70  and  _71
REMARK   28  A    between atoms: _70  and  _73
REMARK   29  A    between atoms: _73  and  _74
REMARK   30  A    between atoms: _79  and  _80
REMARK   31  A    between atoms: _82  and  _84
REMARK   32  A    between atoms: _84  and  _85
REMARK   33  A    between atoms: _84  and  _87
REMARK   34  A    between atoms: _87  and  _88
REMARK   35  A    between atoms: _88  and  _89
REMARK   36  A    between atoms: _92  and  _94
REMARK   37  A    between atoms: _94  and  _95
REMARK   38  A    between atoms: _94  and  _97
REMARK   39  A    between atoms: _97  and  _98
REMARK   40  A    between atoms: _98  and  _99
REMARK   41  A    between atoms: _99  and  _100
REMARK   42  A    between atoms: _109  and  _111
REMARK   43  A    between atoms: _111  and  _112
REMARK   44  A    between atoms: _111  and  _114
REMARK   45  A    between atoms: _116  and  _118
REMARK   46  A    between atoms: _118  and  _119
REMARK   47  A    between atoms: _118  and  _121
REMARK   48  A    between atoms: _121  and  _122
REMARK   49  A    between atoms: _132  and  _134
REMARK   50  A    between atoms: _134  and  _135
REMARK   51  A    between atoms: _134  and  _137
REMARK   52  A    between atoms: _137  and  _138
REMARK   53  A    between atoms: _141  and  _143
REMARK   54  A    between atoms: _143  and  _144
REMARK   55  A    between atoms: _143  and  _146
REMARK   56  A    between atoms: _146  and  _147
REMARK   57  A    between atoms: _152  and  _153
REMARK   58  A    between atoms: _155  and  _157
REMARK   59  A    between atoms: _157  and  _158
REMARK   60  A    between atoms: _157  and  _160
REMARK   61  A    between atoms: _160  and  _161
REMARK   62  A    between atoms: _164  and  _166
REMARK   63  A    between atoms: _166  and  _167
REMARK   64  A    between atoms: _169  and  _171
REMARK   65  A    between atoms: _171  and  _172
REMARK   66  A    between atoms: _175  and  _177
REMARK   67  A    between atoms: _177  and  _178
REMARK   68  A    between atoms: _177  and  _180
REMARK   69  A    between atoms: _180  and  _181
REMARK   70  A    between atoms: _187  and  _189
REMARK   71  A    between atoms: _189  and  _190
REMARK   72  A    between atoms: _189  and  _192
REMARK   73  A    between atoms: _192  and  _193
REMARK   74  A    between atoms: _198  and  _200
REMARK   75  A    between atoms: _200  and  _201
REMARK   76  A    between atoms: _200  and  _203
REMARK   77  A    between atoms: _203  and  _204
REMARK   78  A    between atoms: _207  and  _209
REMARK   79  A    between atoms: _209  and  _210
REMARK   80  A    between atoms: _209  and  _212
REMARK   81  A    between atoms: _212  and  _213
REMARK   82  A    between atoms: _218  and  _220
REMARK   83  A    between atoms: _220  and  _221
REMARK   84  A    between atoms: _220  and  _223
REMARK   85  A    between atoms: _223  and  _224
REMARK   86  A    between atoms: _227  and  _229
REMARK   87  A    between atoms: _229  and  _230
REMARK   88  A    between atoms: _229  and  _232
REMARK   89  A    between atoms: _235  and  _237
REMARK   90  A    between atoms: _237  and  _238
REMARK   91  A    between atoms: _237  and  _240
REMARK   92  A    between atoms: _240  and  _241
REMARK   93  A    between atoms: _251  and  _253
REMARK   94  A    between atoms: _253  and  _254
REMARK   95  A    between atoms: _253  and  _256
REMARK   96  A    between atoms: _256  and  _257
REMARK   97  A    between atoms: _260  and  _262
REMARK   98  A    between atoms: _262  and  _263
REMARK   99  A    between atoms: _265  and  _267
REMARK  100  A    between atoms: _267  and  _268
REMARK  101  A    between atoms: _267  and  _270
REMARK  102  A    between atoms: _270  and  _271
REMARK  103  A    between atoms: _276  and  _278
REMARK  104  A    between atoms: _278  and  _279
REMARK  105  A    between atoms: _281  and  _283
REMARK  106  A    between atoms: _283  and  _284
REMARK  107  A    between atoms: _283  and  _286
REMARK  108  A    between atoms: _286  and  _287
REMARK                            x       y       z     vdW  Elec       q    Type
REMARK                         _______ _______ _______ _____ _____    ______ ____
ROOT
ATOM      1  CA  VAL A   1     -14.286  32.825   2.301  0.00  0.00    +0.133 C 
ENDROOT
BRANCH   1   2
ATOM      2  CB  VAL A   1     -12.963  33.323   2.914  0.00  0.00    +0.023 C 
ATOM      3  CG2 VAL A   1     -12.744  32.699   4.274  0.00  0.00    +0.002 C 
ATOM      4  CG1 VAL A   1     -11.789  33.011   1.989  0.00  0.00    +0.002 C 
ENDBRANCH   1   2
BRANCH   1   5
ATOM      5  N   VAL A   1     -14.577  33.526   1.074  0.00  0.00    -0.239 NA
ATOM      6  H   VAL A   1     -14.540  34.565   1.095  0.00  0.00    +0.142 HD
ENDBRANCH   1   5
BRANCH   1   7
ATOM      7  C   VAL A   1     -15.443  33.057   3.253  0.00  0.00    +0.224 C 
ATOM      8  O   VAL A   1     -15.824  34.210   3.491  0.00  0.00    -0.287 OA
ENDBRANCH   1   7
TORSDOF 3
REMARK  Name = ../refined-set-2016/2bt9/2bt9_pocket.pdb
REMARK  108 active torsions:
REMARK  status: ('A' for Active; 'I' for Inactive)
REMARK    1  A    between atoms: _1  and  _3
REMARK    2  A    between atoms: _3  and  _4
REMARK    3  A    between atoms: _3  and  _6
REMARK    4  A    between atoms: _6  and  _7
REMARK    5  A    between atoms: _10  and  _12
REMARK    6  A    between atoms: _12  and  _13
REMARK    7  A    between atoms: _12  and  _15
REMARK    8  A    between atoms: _15  and  _16
REMARK    9  A    between atoms: _26  and  _28
REMARK   10  A    between atoms: _28  and  _29
REMARK   11  A    between atoms: _28  and  _31
REMARK   12  A    between atoms: _31  and  _32
REMARK   13  A    between atoms: _34  and  _36
REMARK   14  A    between atoms: _36  and  _37
REMARK   15  A    between atoms: _36  and  _39
REMARK   16  A    between atoms: _39  and  _40
REMARK   17  A    between atoms: _43  and  _45
REMARK   18  A    between atoms: _45  and  _46
REMARK   19  A    between atoms: _45  and  _48
REMARK   20  A    between atoms: _48  and  _49
REMARK   21  A    between atoms: _49  and  _50
REMARK   22  A    between atoms: _50  and  _51
REMARK   23  A    between atoms: _60  and  _62
REMARK   24  A    between atoms: _62  and  _63
REMARK   25  A    between atoms: _62  and  _65
REMARK   26  A    between atoms: _68  and  _70
REMARK   27  A    between atoms: _70  and  _71
REMARK   28  A    between atoms: _70  and  _73
REMARK   29  A    between atoms: _73  and  _74
REMARK   30  A    between atoms: _79  and  _80
REMARK   31  A    between atoms: _82  and  _84
REMARK   32  A    between atoms: _84  and  _85
REMARK   33  A    between atoms: _84  and  _87
REMARK   34  A    between atoms: _87  and  _88
REMARK   35  A    between atoms: _88  and  _89
REMARK   36  A    between atoms: _92  and  _94
REMARK   37  A    between atoms: _94  and  _95
REMARK   38  A    between atoms: _94  and  _97
REMARK   39  A    between atoms: _97  and  _98
REMARK   40  A    between atoms: _98  and  _99
REMARK   41  A    between atoms: _99  and  _100
REMARK   42  A    between atoms: _109  and  _111
REMARK   43  A    between atoms: _111  and  _112
REMARK   44  A    between atoms: _111  and  _114
REMARK   45  A    between atoms: _116  and  _118
REMARK   46  A    between atoms: _118  and  _119
REMARK   47  A    between atoms: _118  and  _121
REMARK   48  A    between atoms: _121  and  _122
REMARK   49  A    between atoms: _132  and  _134
REMARK   50  A    between atoms: _134  and  _135
REMARK   51  A    between atoms: _134  and  _137
REMARK   52  A    between atoms: _137  and  _138
REMARK   53  A    between atoms: _141  and  _143
REMARK   54  A    between atoms: _143  and  _144
REMARK   55  A    between atoms: _143  and  _146
REMARK   56  A    between atoms: _146  and  _147
REMARK   57  A    between atoms: _152  and  _153
REMARK   58  A    between atoms: _155  and  _157
REMARK   59  A    between atoms: _157  and  _158
REMARK   60  A    between atoms: _157  and  _160
REMARK   61  A    between atoms: _160  and  _161
REMARK   62  A    between atoms: _164  and  _166
REMARK   63  A    between atoms: _166  and  _167
REMARK   64  A    between atoms: _169  and  _171
REMARK   65  A    between atoms: _171  and  _172
REMARK   66  A    between atoms: _175  and  _177
REMARK   67  A    between atoms: _177  and  _178
REMARK   68  A    between atoms: _177  and  _180
REMARK   69  A    between atoms: _180  and  _181
REMARK   70  A    between atoms: _187  and  _189
REMARK   71  A    between atoms: _189  and  _190
REMARK   72  A    between atoms: _189  and  _192
REMARK   73  A    between atoms: _192  and  _193
REMARK   74  A    between atoms: _198  and  _200
REMARK   75  A    between atoms: _200  and  _201
REMARK   76  A    between atoms: _200  and  _203
REMARK   77  A    between atoms: _203  and  _204
REMARK   78  A    between atoms: _207  and  _209
REMARK   79  A    between atoms: _209  and  _210
REMARK   80  A    between atoms: _209  and  _212
REMARK   81  A    between atoms: _212  and  _213
REMARK   82  A    between atoms: _218  and  _220
REMARK   83  A    between atoms: _220  and  _221
REMARK   84  A    between atoms: _220  and  _223
REMARK   85  A    between atoms: _223  and  _224
REMARK   86  A    between atoms: _227  and  _229
REMARK   87  A    between atoms: _229  and  _230
REMARK   88  A    between atoms: _229  and  _232
REMARK   89  A    between atoms: _235  and  _237
REMARK   90  A    between atoms: _237  and  _238
REMARK   91  A    between atoms: _237  and  _240
REMARK   92  A    between atoms: _240  and  _241
REMARK   93  A    between atoms: _251  and  _253
REMARK   94  A    between atoms: _253  and  _254
REMARK   95  A    between atoms: _253  and  _256
REMARK   96  A    between atoms: _256  and  _257
REMARK   97  A    between atoms: _260  and  _262
REMARK   98  A    between atoms: _262  and  _263
REMARK   99  A    between atoms: _265  and  _267
REMARK  100  A    between atoms: _267  and  _268
REMARK  101  A    between atoms: _267  and  _270
REMARK  102  A    between atoms: _270  and  _271
REMARK  103  A    between atoms: _276  and  _278
REMARK  104  A    between atoms: _278  and  _279
REMARK  105  A    between atoms: _281  and  _283
REMARK  106  A    between atoms: _283  and  _284
REMARK  107  A    between atoms: _283  and  _286
REMARK  108  A    between atoms: _286  and  _287
REMARK                            x       y       z     vdW  Elec       q    Type
REMARK                         _______ _______ _______ _____ _____    ______ ____
ROOT
ATOM      1  C   GLY A   3      -7.458  42.126  -6.725  0.00  0.00    +0.243 C 
ATOM      2  N   ASN A   4      -8.128  42.791  -5.797  0.00  0.00    -0.297 N 
ATOM      3  H   ASN A   4      -9.029  42.390  -5.466  0.00  0.00    +0.150 HD
ATOM      4  O   GLY A   3      -6.332  42.508  -7.108  0.00  0.00    -0.273 OA
ENDROOT
BRANCH   1   5
ATOM      5  CA  GLY A   3      -8.093  40.946  -7.357  0.00  0.00    +0.176 C 
BRANCH   5   7
ATOM      6  C   ASP A   2     -10.548  40.752  -7.270  0.00  0.00    +0.241 C 
ATOM      7  N   GLY A   3      -9.326  40.570  -6.708  0.00  0.00    -0.295 N 
ATOM      8  H   GLY A   3      -9.276  40.138  -5.763  0.00  0.00    +0.150 HD
ATOM      9  O   ASP A   2     -10.734  41.365  -8.299  0.00  0.00    -0.273 OA
BRANCH   6  10
ATOM     10  CA  ASP A   2     -11.709  40.129  -6.507  0.00  0.00    +0.160 C 
BRANCH  10  13
ATOM     11  C   TRP A   1     -11.565  38.795  -4.441  0.00  0.00    +0.239 C 
ATOM     12  O   TRP A   1     -12.016  37.780  -4.989  0.00  0.00    -0.274 OA
ATOM     13  N   ASP A   2     -11.405  39.954  -5.097  0.00  0.00    -0.297 N 
ATOM     14  H   ASP A   2     -11.043  40.773  -4.567  0.00  0.00    +0.150 HD
BRANCH  11  15
ATOM     15  CA  TRP A   1     -11.139  38.757  -2.989  0.00  0.00    +0.149 C 
BRANCH  15  16
ATOM     16  N   TRP A   1     -12.317  38.346  -2.234  0.00  0.00    -0.238 NA
ATOM     17  H   TRP A   1     -12.684  37.385  -2.390  0.00  0.00    +0.142 HD
ENDBRANCH  15  16
BRANCH  15  18
ATOM     18  CB  TRP A   1      -9.937  37.795  -2.812  0.00  0.00    +0.054 C 
BRANCH  18  19
ATOM     19  CG  TRP A   1      -8.779  38.202  -3.636  0.00  0.00    -0.002 A 
ATOM     20  CD2 TRP A   1      -7.701  39.033  -3.185  0.00  0.00    +0.013 A 
ATOM     21  CE3 TRP A   1      -7.355  39.642  -1.984  0.00  0.00    +0.001 A 
ATOM     22  CZ3 TRP A   1      -6.204  40.372  -1.881  0.00  0.00    +0.000 A 
ATOM     23  CH2 TRP A   1      -5.337  40.513  -2.978  0.00  0.00    +0.001 A 
ATOM     24  CZ2 TRP A   1      -5.620  39.939  -4.198  0.00  0.00    +0.017 A 
ATOM     25  CE2 TRP A   1      -6.813  39.170  -4.291  0.00  0.00    +0.056 A 
ATOM     26  NE1 TRP A   1      -7.336  38.483  -5.339  0.00  0.00    -0.352 N 
ATOM     27  HE1 TRP A   1      -6.922  38.413  -6.290  0.00  0.00    +0.166 HD
ATOM     28  CD1 TRP A   1      -8.511  37.894  -4.924  0.00  0.00    +0.068 A 
ENDBRANCH  18  19
ENDBRANCH  15  18
ENDBRANCH  11  15
ENDBRANCH  10  13
BRANCH  10  29
ATOM     29  CB  ASP A   2     -12.980  40.972  -6.649  0.00  0.00    +0.143 C 
BRANCH  29  30
ATOM     30  CG  ASP A   2     -14.173  40.312  -5.995  0.00  0.00    +0.367 C 
ATOM     31  OD2 ASP A   2     -14.683  40.824  -4.990  0.00  0.00    -0.246 OA
ATOM     32  OD1 ASP A   2     -14.608  39.246  -6.488  0.00  0.00    -0.246 OA
ENDBRANCH  29  30
ENDBRANCH  10  29
ENDBRANCH   6  10
ENDBRANCH   5   7
ENDBRANCH   1   5
BRANCH   2  33
ATOM     33  CA  ASN A   4      -7.692  44.027  -5.219  0.00  0.00    +0.158 C 
BRANCH  33  34
ATOM     34  C   ASN A   4      -8.085  44.161  -3.743  0.00  0.00    +0.241 C 
ATOM     35  N   GLY A   5      -7.700  43.213  -2.911  0.00  0.00    -0.295 N 
ATOM     36  H   GLY A   5      -7.244  42.375  -3.326  0.00  0.00    +0.150 HD
ATOM     37  O   ASN A   4      -8.650  45.149  -3.280  0.00  0.00    -0.273 OA
BRANCH  35  38
ATOM     38  CA  GLY A   5      -7.852  43.233  -1.498  0.00  0.00    +0.176 C 
BRANCH  38  39
ATOM     39  C   GLY A   5      -9.120  42.544  -0.985  0.00  0.00    +0.243 C 
ATOM     40  N   TRP A   6      -9.128  42.239   0.293  0.00  0.00    -0.298 N 
ATOM     41  H   TRP A   6      -8.305  42.487   0.878  0.00  0.00    +0.150 HD
ATOM     42  O   GLY A   5     -10.039  42.234  -1.725  0.00  0.00    -0.273 OA
BRANCH  40  43
ATOM     43  CA  TRP A   6     -10.273  41.555   0.919  0.00  0.00    +0.141 C 
BRANCH  43  44
ATOM     44  C   TRP A   6     -11.265  42.554   1.431  0.00  0.00    +0.227 C 
ATOM     45  O   TRP A   6     -10.929  43.530   2.126  0.00  0.00    -0.286 OA
ENDBRANCH  43  44
BRANCH  43  46
ATOM     46  CB  TRP A   6      -9.803  40.714   2.095  0.00  0.00    +0.056 C 
BRANCH  46  47
ATOM     47  CG  TRP A   6      -9.002  39.527   1.670  0.00  0.00    -0.002 A 
ATOM     48  CD1 TRP A   6      -7.648  39.416   1.656  0.00  0.00    +0.068 A 
ATOM     49  NE1 TRP A   6      -7.281  38.174   1.206  0.00  0.00    -0.352 N 
ATOM     50  HE1 TRP A   6      -6.304  37.834   1.098  0.00  0.00    +0.166 HD
ATOM     51  CE2 TRP A   6      -8.406  37.458   0.923  0.00  0.00    +0.056 A 
ATOM     52  CZ2 TRP A   6      -8.547  36.147   0.447  0.00  0.00    +0.017 A 
ATOM     53  CH2 TRP A   6      -9.827  35.668   0.272  0.00  0.00    +0.001 A 
ATOM     54  CZ3 TRP A   6     -10.956  36.464   0.538  0.00  0.00    +0.000 A 
ATOM     55  CE3 TRP A   6     -10.791  37.771   0.995  0.00  0.00    +0.001 A 
ATOM     56  CD2 TRP A   6      -9.526  38.291   1.197  0.00  0.00    +0.013 A 
ENDBRANCH  46  47
ENDBRANCH  43  46
ENDBRANCH  40  43
ENDBRANCH  38  39
ENDBRANCH  35  38
ENDBRANCH  33  34
BRANCH  33  57
ATOM     57  CB  ASN A   4      -8.227  45.172  -6.073  0.00  0.00    +0.114 C 
BRANCH  57  58
ATOM     58  CG  ASN A   4      -9.722  45.275  -6.133  0.00  0.00    +0.222 C 
ATOM     59  ND2 ASN A   4     -10.257  46.289  -5.509  0.00  0.00    -0.329 N 
ATOM     60 HD21 ASN A   4      -9.651  46.968  -5.006  0.00  0.00    +0.145 HD
ATOM     61 HD22 ASN A   4     -11.289  46.418  -5.515  0.00  0.00    +0.145 HD
ATOM     62  OD1 ASN A   4     -10.360  44.431  -6.748  0.00  0.00    -0.275 OA
ENDBRANCH  57  58
ENDBRANCH  33  57
ENDBRANCH   2  33
TORSDOF 20
REMARK  Name = ../refined-set-2016/2bt9/2bt9_pocket.pdb
REMARK  108 active torsions:
REMARK  status: ('A' for Active; 'I' for Inactive)
REMARK    1  A    between atoms: _1  and  _3
REMARK    2  A    between atoms: _3  and  _4
REMARK    3  A    between atoms: _3  and  _6
REMARK    4  A    between atoms: _6  and  _7
REMARK    5  A    between atoms: _10  and  _12
REMARK    6  A    between atoms: _12  and  _13
REMARK    7  A    between atoms: _12  and  _15
REMARK    8  A    between atoms: _15  and  _16
REMARK    9  A    between atoms: _26  and  _28
REMARK   10  A    between atoms: _28  and  _29
REMARK   11  A    between atoms: _28  and  _31
REMARK   12  A    between atoms: _31  and  _32
REMARK   13  A    between atoms: _34  and  _36
REMARK   14  A    between atoms: _36  and  _37
REMARK   15  A    between atoms: _36  and  _39
REMARK   16  A    between atoms: _39  and  _40
REMARK   17  A    between atoms: _43  and  _45
REMARK   18  A    between atoms: _45  and  _46
REMARK   19  A    between atoms: _45  and  _48
REMARK   20  A    between atoms: _48  and  _49
REMARK   21  A    between atoms: _49  and  _50
REMARK   22  A    between atoms: _50  and  _51
REMARK   23  A    between atoms: _60  and  _62
REMARK   24  A    between atoms: _62  and  _63
REMARK   25  A    between atoms: _62  and  _65
REMARK   26  A    between atoms: _68  and  _70
REMARK   27  A    between atoms: _70  and  _71
REMARK   28  A    between atoms: _70  and  _73
REMARK   29  A    between atoms: _73  and  _74
REMARK   30  A    between atoms: _79  and  _80
REMARK   31  A    between atoms: _82  and  _84
REMARK   32  A    between atoms: _84  and  _85
REMARK   33  A    between atoms: _84  and  _87
REMARK   34  A    between atoms: _87  and  _88
REMARK   35  A    between atoms: _88  and  _89
REMARK   36  A    between atoms: _92  and  _94
REMARK   37  A    between atoms: _94  and  _95
REMARK   38  A    between atoms: _94  and  _97
REMARK   39  A    between atoms: _97  and  _98
REMARK   40  A    between atoms: _98  and  _99
REMARK   41  A    between atoms: _99  and  _100
REMARK   42  A    between atoms: _109  and  _111
REMARK   43  A    between atoms: _111  and  _112
REMARK   44  A    between atoms: _111  and  _114
REMARK   45  A    between atoms: _116  and  _118
REMARK   46  A    between atoms: _118  and  _119
REMARK   47  A    between atoms: _118  and  _121
REMARK   48  A    between atoms: _121  and  _122
REMARK   49  A    between atoms: _132  and  _134
REMARK   50  A    between atoms: _134  and  _135
REMARK   51  A    between atoms: _134  and  _137
REMARK   52  A    between atoms: _137  and  _138
REMARK   53  A    between atoms: _141  and  _143
REMARK   54  A    between atoms: _143  and  _144
REMARK   55  A    between atoms: _143  and  _146
REMARK   56  A    between atoms: _146  and  _147
REMARK   57  A    between atoms: _152  and  _153
REMARK   58  A    between atoms: _155  and  _157
REMARK   59  A    between atoms: _157  and  _158
REMARK   60  A    between atoms: _157  and  _160
REMARK   61  A    between atoms: _160  and  _161
REMARK   62  A    between atoms: _164  and  _166
REMARK   63  A    between atoms: _166  and  _167
REMARK   64  A    between atoms: _169  and  _171
REMARK   65  A    between atoms: _171  and  _172
REMARK   66  A    between atoms: _175  and  _177
REMARK   67  A    between atoms: _177  and  _178
REMARK   68  A    between atoms: _177  and  _180
REMARK   69  A    between atoms: _180  and  _181
REMARK   70  A    between atoms: _187  and  _189
REMARK   71  A    between atoms: _189  and  _190
REMARK   72  A    between atoms: _189  and  _192
REMARK   73  A    between atoms: _192  and  _193
REMARK   74  A    between atoms: _198  and  _200
REMARK   75  A    between atoms: _200  and  _201
REMARK   76  A    between atoms: _200  and  _203
REMARK   77  A    between atoms: _203  and  _204
REMARK   78  A    between atoms: _207  and  _209
REMARK   79  A    between atoms: _209  and  _210
REMARK   80  A    between atoms: _209  and  _212
REMARK   81  A    between atoms: _212  and  _213
REMARK   82  A    between atoms: _218  and  _220
REMARK   83  A    between atoms: _220  and  _221
REMARK   84  A    between atoms: _220  and  _223
REMARK   85  A    between atoms: _223  and  _224
REMARK   86  A    between atoms: _227  and  _229
REMARK   87  A    between atoms: _229  and  _230
REMARK   88  A    between atoms: _229  and  _232
REMARK   89  A    between atoms: _235  and  _237
REMARK   90  A    between atoms: _237  and  _238
REMARK   91  A    between atoms: _237  and  _240
REMARK   92  A    between atoms: _240  and  _241
REMARK   93  A    between atoms: _251  and  _253
REMARK   94  A    between atoms: _253  and  _254
REMARK   95  A    between atoms: _253  and  _256
REMARK   96  A    between atoms: _256  and  _257
REMARK   97  A    between atoms: _260  and  _262
REMARK   98  A    between atoms: _262  and  _263
REMARK   99  A    between atoms: _265  and  _267
REMARK  100  A    between atoms: _267  and  _268
REMARK  101  A    between atoms: _267  and  _270
REMARK  102  A    between atoms: _270  and  _271
REMARK  103  A    between atoms: _276  and  _278
REMARK  104  A    between atoms: _278  and  _279
REMARK  105  A    between atoms: _281  and  _283
REMARK  106  A    between atoms: _283  and  _284
REMARK  107  A    between atoms: _283  and  _286
REMARK  108  A    between atoms: _286  and  _287
REMARK                            x       y       z     vdW  Elec       q    Type
REMARK                         _______ _______ _______ _____ _____    ______ ____
ROOT
ATOM      1  O   HOH     1      -3.397  36.015  -7.590  0.00  0.00    +0.000 OA
ENDROOT
TORSDOF 0
REMARK  Name = ../refined-set-2016/2bt9/2bt9_pocket.pdb
REMARK  108 active torsions:
REMARK  status: ('A' for Active; 'I' for Inactive)
REMARK    1  A    between atoms: _1  and  _3
REMARK    2  A    between atoms: _3  and  _4
REMARK    3  A    between atoms: _3  and  _6
REMARK    4  A    between atoms: _6  and  _7
REMARK    5  A    between atoms: _10  and  _12
REMARK    6  A    between atoms: _12  and  _13
REMARK    7  A    between atoms: _12  and  _15
REMARK    8  A    between atoms: _15  and  _16
REMARK    9  A    between atoms: _26  and  _28
REMARK   10  A    between atoms: _28  and  _29
REMARK   11  A    between atoms: _28  and  _31
REMARK   12  A    between atoms: _31  and  _32
REMARK   13  A    between atoms: _34  and  _36
REMARK   14  A    between atoms: _36  and  _37
REMARK   15  A    between atoms: _36  and  _39
REMARK   16  A    between atoms: _39  and  _40
REMARK   17  A    between atoms: _43  and  _45
REMARK   18  A    between atoms: _45  and  _46
REMARK   19  A    between atoms: _45  and  _48
REMARK   20  A    between atoms: _48  and  _49
REMARK   21  A    between atoms: _49  and  _50
REMARK   22  A    between atoms: _50  and  _51
REMARK   23  A    between atoms: _60  and  _62
REMARK   24  A    between atoms: _62  and  _63
REMARK   25  A    between atoms: _62  and  _65
REMARK   26  A    between atoms: _68  and  _70
REMARK   27  A    between atoms: _70  and  _71
REMARK   28  A    between atoms: _70  and  _73
REMARK   29  A    between atoms: _73  and  _74
REMARK   30  A    between atoms: _79  and  _80
REMARK   31  A    between atoms: _82  and  _84
REMARK   32  A    between atoms: _84  and  _85
REMARK   33  A    between atoms: _84  and  _87
REMARK   34  A    between atoms: _87  and  _88
REMARK   35  A    between atoms: _88  and  _89
REMARK   36  A    between atoms: _92  and  _94
REMARK   37  A    between atoms: _94  and  _95
REMARK   38  A    between atoms: _94  and  _97
REMARK   39  A    between atoms: _97  and  _98
REMARK   40  A    between atoms: _98  and  _99
REMARK   41  A    between atoms: _99  and  _100
REMARK   42  A    between atoms: _109  and  _111
REMARK   43  A    between atoms: _111  and  _112
REMARK   44  A    between atoms: _111  and  _114
REMARK   45  A    between atoms: _116  and  _118
REMARK   46  A    between atoms: _118  and  _119
REMARK   47  A    between atoms: _118  and  _121
REMARK   48  A    between atoms: _121  and  _122
REMARK   49  A    between atoms: _132  and  _134
REMARK   50  A    between atoms: _134  and  _135
REMARK   51  A    between atoms: _134  and  _137
REMARK   52  A    between atoms: _137  and  _138
REMARK   53  A    between atoms: _141  and  _143
REMARK   54  A    between atoms: _143  and  _144
REMARK   55  A    between atoms: _143  and  _146
REMARK   56  A    between atoms: _146  and  _147
REMARK   57  A    between atoms: _152  and  _153
REMARK   58  A    between atoms: _155  and  _157
REMARK   59  A    between atoms: _157  and  _158
REMARK   60  A    between atoms: _157  and  _160
REMARK   61  A    between atoms: _160  and  _161
REMARK   62  A    between atoms: _164  and  _166
REMARK   63  A    between atoms: _166  and  _167
REMARK   64  A    between atoms: _169  and  _171
REMARK   65  A    between atoms: _171  and  _172
REMARK   66  A    between atoms: _175  and  _177
REMARK   67  A    between atoms: _177  and  _178
REMARK   68  A    between atoms: _177  and  _180
REMARK   69  A    between atoms: _180  and  _181
REMARK   70  A    between atoms: _187  and  _189
REMARK   71  A    between atoms: _189  and  _190
REMARK   72  A    between atoms: _189  and  _192
REMARK   73  A    between atoms: _192  and  _193
REMARK   74  A    between atoms: _198  and  _200
REMARK   75  A    between atoms: _200  and  _201
REMARK   76  A    between atoms: _200  and  _203
REMARK   77  A    between atoms: _203  and  _204
REMARK   78  A    between atoms: _207  and  _209
REMARK   79  A    between atoms: _209  and  _210
REMARK   80  A    between atoms: _209  and  _212
REMARK   81  A    between atoms: _212  and  _213
REMARK   82  A    between atoms: _218  and  _220
REMARK   83  A    between atoms: _220  and  _221
REMARK   84  A    between atoms: _220  and  _223
REMARK   85  A    between atoms: _223  and  _224
REMARK   86  A    between atoms: _227  and  _229
REMARK   87  A    between atoms: _229  and  _230
REMARK   88  A    between atoms: _229  and  _232
REMARK   89  A    between atoms: _235  and  _237
REMARK   90  A    between atoms: _237  and  _238
REMARK   91  A    between atoms: _237  and  _240
REMARK   92  A    between atoms: _240  and  _241
REMARK   93  A    between atoms: _251  and  _253
REMARK   94  A    between atoms: _253  and  _254
REMARK   95  A    between atoms: _253  and  _256
REMARK   96  A    between atoms: _256  and  _257
REMARK   97  A    between atoms: _260  and  _262
REMARK   98  A    between atoms: _262  and  _263
REMARK   99  A    between atoms: _265  and  _267
REMARK  100  A    between atoms: _267  and  _268
REMARK  101  A    between atoms: _267  and  _270
REMARK  102  A    between atoms: _270  and  _271
REMARK  103  A    between atoms: _276  and  _278
REMARK  104  A    between atoms: _278  and  _279
REMARK  105  A    between atoms: _281  and  _283
REMARK  106  A    between atoms: _283  and  _284
REMARK  107  A    between atoms: _283  and  _286
REMARK  108  A    between atoms: _286  and  _287
REMARK                            x       y       z     vdW  Elec       q    Type
REMARK                         _______ _______ _______ _____ _____    ______ ____
ROOT
ATOM      1  O   HOH     1      -3.772  34.259  -9.816  0.00  0.00    +0.000 OA
ENDROOT
TORSDOF 0
REMARK  Name = ../refined-set-2016/2bt9/2bt9_pocket.pdb
REMARK  108 active torsions:
REMARK  status: ('A' for Active; 'I' for Inactive)
REMARK    1  A    between atoms: _1  and  _3
REMARK    2  A    between atoms: _3  and  _4
REMARK    3  A    between atoms: _3  and  _6
REMARK    4  A    between atoms: _6  and  _7
REMARK    5  A    between atoms: _10  and  _12
REMARK    6  A    between atoms: _12  and  _13
REMARK    7  A    between atoms: _12  and  _15
REMARK    8  A    between atoms: _15  and  _16
REMARK    9  A    between atoms: _26  and  _28
REMARK   10  A    between atoms: _28  and  _29
REMARK   11  A    between atoms: _28  and  _31
REMARK   12  A    between atoms: _31  and  _32
REMARK   13  A    between atoms: _34  and  _36
REMARK   14  A    between atoms: _36  and  _37
REMARK   15  A    between atoms: _36  and  _39
REMARK   16  A    between atoms: _39  and  _40
REMARK   17  A    between atoms: _43  and  _45
REMARK   18  A    between atoms: _45  and  _46
REMARK   19  A    between atoms: _45  and  _48
REMARK   20  A    between atoms: _48  and  _49
REMARK   21  A    between atoms: _49  and  _50
REMARK   22  A    between atoms: _50  and  _51
REMARK   23  A    between atoms: _60  and  _62
REMARK   24  A    between atoms: _62  and  _63
REMARK   25  A    between atoms: _62  and  _65
REMARK   26  A    between atoms: _68  and  _70
REMARK   27  A    between atoms: _70  and  _71
REMARK   28  A    between atoms: _70  and  _73
REMARK   29  A    between atoms: _73  and  _74
REMARK   30  A    between atoms: _79  and  _80
REMARK   31  A    between atoms: _82  and  _84
REMARK   32  A    between atoms: _84  and  _85
REMARK   33  A    between atoms: _84  and  _87
REMARK   34  A    between atoms: _87  and  _88
REMARK   35  A    between atoms: _88  and  _89
REMARK   36  A    between atoms: _92  and  _94
REMARK   37  A    between atoms: _94  and  _95
REMARK   38  A    between atoms: _94  and  _97
REMARK   39  A    between atoms: _97  and  _98
REMARK   40  A    between atoms: _98  and  _99
REMARK   41  A    between atoms: _99  and  _100
REMARK   42  A    between atoms: _109  and  _111
REMARK   43  A    between atoms: _111  and  _112
REMARK   44  A    between atoms: _111  and  _114
REMARK   45  A    between atoms: _116  and  _118
REMARK   46  A    between atoms: _118  and  _119
REMARK   47  A    between atoms: _118  and  _121
REMARK   48  A    between atoms: _121  and  _122
REMARK   49  A    between atoms: _132  and  _134
REMARK   50  A    between atoms: _134  and  _135
REMARK   51  A    between atoms: _134  and  _137
REMARK   52  A    between atoms: _137  and  _138
REMARK   53  A    between atoms: _141  and  _143
REMARK   54  A    between atoms: _143  and  _144
REMARK   55  A    between atoms: _143  and  _146
REMARK   56  A    between atoms: _146  and  _147
REMARK   57  A    between atoms: _152  and  _153
REMARK   58  A    between atoms: _155  and  _157
REMARK   59  A    between atoms: _157  and  _158
REMARK   60  A    between atoms: _157  and  _160
REMARK   61  A    between atoms: _160  and  _161
REMARK   62  A    between atoms: _164  and  _166
REMARK   63  A    between atoms: _166  and  _167
REMARK   64  A    between atoms: _169  and  _171
REMARK   65  A    between atoms: _171  and  _172
REMARK   66  A    between atoms: _175  and  _177
REMARK   67  A    between atoms: _177  and  _178
REMARK   68  A    between atoms: _177  and  _180
REMARK   69  A    between atoms: _180  and  _181
REMARK   70  A    between atoms: _187  and  _189
REMARK   71  A    between atoms: _189  and  _190
REMARK   72  A    between atoms: _189  and  _192
REMARK   73  A    between atoms: _192  and  _193
REMARK   74  A    between atoms: _198  and  _200
REMARK   75  A    between atoms: _200  and  _201
REMARK   76  A    between atoms: _200  and  _203
REMARK   77  A    between atoms: _203  and  _204
REMARK   78  A    between atoms: _207  and  _209
REMARK   79  A    between atoms: _209  and  _210
REMARK   80  A    between atoms: _209  and  _212
REMARK   81  A    between atoms: _212  and  _213
REMARK   82  A    between atoms: _218  and  _220
REMARK   83  A    between atoms: _220  and  _221
REMARK   84  A    between atoms: _220  and  _223
REMARK   85  A    between atoms: _223  and  _224
REMARK   86  A    between atoms: _227  and  _229
REMARK   87  A    between atoms: _229  and  _230
REMARK   88  A    between atoms: _229  and  _232
REMARK   89  A    between atoms: _235  and  _237
REMARK   90  A    between atoms: _237  and  _238
REMARK   91  A    between atoms: _237  and  _240
REMARK   92  A    between atoms: _240  and  _241
REMARK   93  A    between atoms: _251  and  _253
REMARK   94  A    between atoms: _253  and  _254
REMARK   95  A    between atoms: _253  and  _256
REMARK   96  A    between atoms: _256  and  _257
REMARK   97  A    between atoms: _260  and  _262
REMARK   98  A    between atoms: _262  and  _263
REMARK   99  A    between atoms: _265  and  _267
REMARK  100  A    between atoms: _267  and  _268
REMARK  101  A    between atoms: _267  and  _270
REMARK  102  A    between atoms: _270  and  _271
REMARK  103  A    between atoms: _276  and  _278
REMARK  104  A    between atoms: _278  and  _279
REMARK  105  A    between atoms: _281  and  _283
REMARK  106  A    between atoms: _283  and  _284
REMARK  107  A    between atoms: _283  and  _286
REMARK  108  A    between atoms: _286  and  _287
REMARK                            x       y       z     vdW  Elec       q    Type
REMARK                         _______ _______ _______ _____ _____    ______ ____
ROOT
ATOM      1  O   HOH     1       3.651  34.640  -5.442  0.00  0.00    +0.000 OA
ENDROOT
TORSDOF 0
REMARK  Name = ../refined-set-2016/2bt9/2bt9_pocket.pdb
REMARK  108 active torsions:
REMARK  status: ('A' for Active; 'I' for Inactive)
REMARK    1  A    between atoms: _1  and  _3
REMARK    2  A    between atoms: _3  and  _4
REMARK    3  A    between atoms: _3  and  _6
REMARK    4  A    between atoms: _6  and  _7
REMARK    5  A    between atoms: _10  and  _12
REMARK    6  A    between atoms: _12  and  _13
REMARK    7  A    between atoms: _12  and  _15
REMARK    8  A    between atoms: _15  and  _16
REMARK    9  A    between atoms: _26  and  _28
REMARK   10  A    between atoms: _28  and  _29
REMARK   11  A    between atoms: _28  and  _31
REMARK   12  A    between atoms: _31  and  _32
REMARK   13  A    between atoms: _34  and  _36
REMARK   14  A    between atoms: _36  and  _37
REMARK   15  A    between atoms: _36  and  _39
REMARK   16  A    between atoms: _39  and  _40
REMARK   17  A    between atoms: _43  and  _45
REMARK   18  A    between atoms: _45  and  _46
REMARK   19  A    between atoms: _45  and  _48
REMARK   20  A    between atoms: _48  and  _49
REMARK   21  A    between atoms: _49  and  _50
REMARK   22  A    between atoms: _50  and  _51
REMARK   23  A    between atoms: _60  and  _62
REMARK   24  A    between atoms: _62  and  _63
REMARK   25  A    between atoms: _62  and  _65
REMARK   26  A    between atoms: _68  and  _70
REMARK   27  A    between atoms: _70  and  _71
REMARK   28  A    between atoms: _70  and  _73
REMARK   29  A    between atoms: _73  and  _74
REMARK   30  A    between atoms: _79  and  _80
REMARK   31  A    between atoms: _82  and  _84
REMARK   32  A    between atoms: _84  and  _85
REMARK   33  A    between atoms: _84  and  _87
REMARK   34  A    between atoms: _87  and  _88
REMARK   35  A    between atoms: _88  and  _89
REMARK   36  A    between atoms: _92  and  _94
REMARK   37  A    between atoms: _94  and  _95
REMARK   38  A    between atoms: _94  and  _97
REMARK   39  A    between atoms: _97  and  _98
REMARK   40  A    between atoms: _98  and  _99
REMARK   41  A    between atoms: _99  and  _100
REMARK   42  A    between atoms: _109  and  _111
REMARK   43  A    between atoms: _111  and  _112
REMARK   44  A    between atoms: _111  and  _114
REMARK   45  A    between atoms: _116  and  _118
REMARK   46  A    between atoms: _118  and  _119
REMARK   47  A    between atoms: _118  and  _121
REMARK   48  A    between atoms: _121  and  _122
REMARK   49  A    between atoms: _132  and  _134
REMARK   50  A    between atoms: _134  and  _135
REMARK   51  A    between atoms: _134  and  _137
REMARK   52  A    between atoms: _137  and  _138
REMARK   53  A    between atoms: _141  and  _143
REMARK   54  A    between atoms: _143  and  _144
REMARK   55  A    between atoms: _143  and  _146
REMARK   56  A    between atoms: _146  and  _147
REMARK   57  A    between atoms: _152  and  _153
REMARK   58  A    between atoms: _155  and  _157
REMARK   59  A    between atoms: _157  and  _158
REMARK   60  A    between atoms: _157  and  _160
REMARK   61  A    between atoms: _160  and  _161
REMARK   62  A    between atoms: _164  and  _166
REMARK   63  A    between atoms: _166  and  _167
REMARK   64  A    between atoms: _169  and  _171
REMARK   65  A    between atoms: _171  and  _172
REMARK   66  A    between atoms: _175  and  _177
REMARK   67  A    between atoms: _177  and  _178
REMARK   68  A    between atoms: _177  and  _180
REMARK   69  A    between atoms: _180  and  _181
REMARK   70  A    between atoms: _187  and  _189
REMARK   71  A    between atoms: _189  and  _190
REMARK   72  A    between atoms: _189  and  _192
REMARK   73  A    between atoms: _192  and  _193
REMARK   74  A    between atoms: _198  and  _200
REMARK   75  A    between atoms: _200  and  _201
REMARK   76  A    between atoms: _200  and  _203
REMARK   77  A    between atoms: _203  and  _204
REMARK   78  A    between atoms: _207  and  _209
REMARK   79  A    between atoms: _209  and  _210
REMARK   80  A    between atoms: _209  and  _212
REMARK   81  A    between atoms: _212  and  _213
REMARK   82  A    between atoms: _218  and  _220
REMARK   83  A    between atoms: _220  and  _221
REMARK   84  A    between atoms: _220  and  _223
REMARK   85  A    between atoms: _223  and  _224
REMARK   86  A    between atoms: _227  and  _229
REMARK   87  A    between atoms: _229  and  _230
REMARK   88  A    between atoms: _229  and  _232
REMARK   89  A    between atoms: _235  and  _237
REMARK   90  A    between atoms: _237  and  _238
REMARK   91  A    between atoms: _237  and  _240
REMARK   92  A    between atoms: _240  and  _241
REMARK   93  A    between atoms: _251  and  _253
REMARK   94  A    between atoms: _253  and  _254
REMARK   95  A    between atoms: _253  and  _256
REMARK   96  A    between atoms: _256  and  _257
REMARK   97  A    between atoms: _260  and  _262
REMARK   98  A    between atoms: _262  and  _263
REMARK   99  A    between atoms: _265  and  _267
REMARK  100  A    between atoms: _267  and  _268
REMARK  101  A    between atoms: _267  and  _270
REMARK  102  A    between atoms: _270  and  _271
REMARK  103  A    between atoms: _276  and  _278
REMARK  104  A    between atoms: _278  and  _279
REMARK  105  A    between atoms: _281  and  _283
REMARK  106  A    between atoms: _283  and  _284
REMARK  107  A    between atoms: _283  and  _286
REMARK  108  A    between atoms: _286  and  _287
REMARK                            x       y       z     vdW  Elec       q    Type
REMARK                         _______ _______ _______ _____ _____    ______ ____
ROOT
ATOM      1  O   HOH     1      -0.756  35.571  -6.352  0.00  0.00    +0.000 OA
ENDROOT
TORSDOF 0
REMARK  Name = ../refined-set-2016/2bt9/2bt9_pocket.pdb
REMARK  108 active torsions:
REMARK  status: ('A' for Active; 'I' for Inactive)
REMARK    1  A    between atoms: _1  and  _3
REMARK    2  A    between atoms: _3  and  _4
REMARK    3  A    between atoms: _3  and  _6
REMARK    4  A    between atoms: _6  and  _7
REMARK    5  A    between atoms: _10  and  _12
REMARK    6  A    between atoms: _12  and  _13
REMARK    7  A    between atoms: _12  and  _15
REMARK    8  A    between atoms: _15  and  _16
REMARK    9  A    between atoms: _26  and  _28
REMARK   10  A    between atoms: _28  and  _29
REMARK   11  A    between atoms: _28  and  _31
REMARK   12  A    between atoms: _31  and  _32
REMARK   13  A    between atoms: _34  and  _36
REMARK   14  A    between atoms: _36  and  _37
REMARK   15  A    between atoms: _36  and  _39
REMARK   16  A    between atoms: _39  and  _40
REMARK   17  A    between atoms: _43  and  _45
REMARK   18  A    between atoms: _45  and  _46
REMARK   19  A    between atoms: _45  and  _48
REMARK   20  A    between atoms: _48  and  _49
REMARK   21  A    between atoms: _49  and  _50
REMARK   22  A    between atoms: _50  and  _51
REMARK   23  A    between atoms: _60  and  _62
REMARK   24  A    between atoms: _62  and  _63
REMARK   25  A    between atoms: _62  and  _65
REMARK   26  A    between atoms: _68  and  _70
REMARK   27  A    between atoms: _70  and  _71
REMARK   28  A    between atoms: _70  and  _73
REMARK   29  A    between atoms: _73  and  _74
REMARK   30  A    between atoms: _79  and  _80
REMARK   31  A    between atoms: _82  and  _84
REMARK   32  A    between atoms: _84  and  _85
REMARK   33  A    between atoms: _84  and  _87
REMARK   34  A    between atoms: _87  and  _88
REMARK   35  A    between atoms: _88  and  _89
REMARK   36  A    between atoms: _92  and  _94
REMARK   37  A    between atoms: _94  and  _95
REMARK   38  A    between atoms: _94  and  _97
REMARK   39  A    between atoms: _97  and  _98
REMARK   40  A    between atoms: _98  and  _99
REMARK   41  A    between atoms: _99  and  _100
REMARK   42  A    between atoms: _109  and  _111
REMARK   43  A    between atoms: _111  and  _112
REMARK   44  A    between atoms: _111  and  _114
REMARK   45  A    between atoms: _116  and  _118
REMARK   46  A    between atoms: _118  and  _119
REMARK   47  A    between atoms: _118  and  _121
REMARK   48  A    between atoms: _121  and  _122
REMARK   49  A    between atoms: _132  and  _134
REMARK   50  A    between atoms: _134  and  _135
REMARK   51  A    between atoms: _134  and  _137
REMARK   52  A    between atoms: _137  and  _138
REMARK   53  A    between atoms: _141  and  _143
REMARK   54  A    between atoms: _143  and  _144
REMARK   55  A    between atoms: _143  and  _146
REMARK   56  A    between atoms: _146  and  _147
REMARK   57  A    between atoms: _152  and  _153
REMARK   58  A    between atoms: _155  and  _157
REMARK   59  A    between atoms: _157  and  _158
REMARK   60  A    between atoms: _157  and  _160
REMARK   61  A    between atoms: _160  and  _161
REMARK   62  A    between atoms: _164  and  _166
REMARK   63  A    between atoms: _166  and  _167
REMARK   64  A    between atoms: _169  and  _171
REMARK   65  A    between atoms: _171  and  _172
REMARK   66  A    between atoms: _175  and  _177
REMARK   67  A    between atoms: _177  and  _178
REMARK   68  A    between atoms: _177  and  _180
REMARK   69  A    between atoms: _180  and  _181
REMARK   70  A    between atoms: _187  and  _189
REMARK   71  A    between atoms: _189  and  _190
REMARK   72  A    between atoms: _189  and  _192
REMARK   73  A    between atoms: _192  and  _193
REMARK   74  A    between atoms: _198  and  _200
REMARK   75  A    between atoms: _200  and  _201
REMARK   76  A    between atoms: _200  and  _203
REMARK   77  A    between atoms: _203  and  _204
REMARK   78  A    between atoms: _207  and  _209
REMARK   79  A    between atoms: _209  and  _210
REMARK   80  A    between atoms: _209  and  _212
REMARK   81  A    between atoms: _212  and  _213
REMARK   82  A    between atoms: _218  and  _220
REMARK   83  A    between atoms: _220  and  _221
REMARK   84  A    between atoms: _220  and  _223
REMARK   85  A    between atoms: _223  and  _224
REMARK   86  A    between atoms: _227  and  _229
REMARK   87  A    between atoms: _229  and  _230
REMARK   88  A    between atoms: _229  and  _232
REMARK   89  A    between atoms: _235  and  _237
REMARK   90  A    between atoms: _237  and  _238
REMARK   91  A    between atoms: _237  and  _240
REMARK   92  A    between atoms: _240  and  _241
REMARK   93  A    between atoms: _251  and  _253
REMARK   94  A    between atoms: _253  and  _254
REMARK   95  A    between atoms: _253  and  _256
REMARK   96  A    between atoms: _256  and  _257
REMARK   97  A    between atoms: _260  and  _262
REMARK   98  A    between atoms: _262  and  _263
REMARK   99  A    between atoms: _265  and  _267
REMARK  100  A    between atoms: _267  and  _268
REMARK  101  A    between atoms: _267  and  _270
REMARK  102  A    between atoms: _270  and  _271
REMARK  103  A    between atoms: _276  and  _278
REMARK  104  A    between atoms: _278  and  _279
REMARK  105  A    between atoms: _281  and  _283
REMARK  106  A    between atoms: _283  and  _284
REMARK  107  A    between atoms: _283  and  _286
REMARK  108  A    between atoms: _286  and  _287
REMARK                            x       y       z     vdW  Elec       q    Type
REMARK                         _______ _______ _______ _____ _____    ______ ____
ROOT
ATOM      1  O   HOH     1       1.020  37.234  -3.562  0.00  0.00    +0.000 OA
ENDROOT
TORSDOF 0
REMARK  Name = ../refined-set-2016/2bt9/2bt9_pocket.pdb
REMARK  108 active torsions:
REMARK  status: ('A' for Active; 'I' for Inactive)
REMARK    1  A    between atoms: _1  and  _3
REMARK    2  A    between atoms: _3  and  _4
REMARK    3  A    between atoms: _3  and  _6
REMARK    4  A    between atoms: _6  and  _7
REMARK    5  A    between atoms: _10  and  _12
REMARK    6  A    between atoms: _12  and  _13
REMARK    7  A    between atoms: _12  and  _15
REMARK    8  A    between atoms: _15  and  _16
REMARK    9  A    between atoms: _26  and  _28
REMARK   10  A    between atoms: _28  and  _29
REMARK   11  A    between atoms: _28  and  _31
REMARK   12  A    between atoms: _31  and  _32
REMARK   13  A    between atoms: _34  and  _36
REMARK   14  A    between atoms: _36  and  _37
REMARK   15  A    between atoms: _36  and  _39
REMARK   16  A    between atoms: _39  and  _40
REMARK   17  A    between atoms: _43  and  _45
REMARK   18  A    between atoms: _45  and  _46
REMARK   19  A    between atoms: _45  and  _48
REMARK   20  A    between atoms: _48  and  _49
REMARK   21  A    between atoms: _49  and  _50
REMARK   22  A    between atoms: _50  and  _51
REMARK   23  A    between atoms: _60  and  _62
REMARK   24  A    between atoms: _62  and  _63
REMARK   25  A    between atoms: _62  and  _65
REMARK   26  A    between atoms: _68  and  _70
REMARK   27  A    between atoms: _70  and  _71
REMARK   28  A    between atoms: _70  and  _73
REMARK   29  A    between atoms: _73  and  _74
REMARK   30  A    between atoms: _79  and  _80
REMARK   31  A    between atoms: _82  and  _84
REMARK   32  A    between atoms: _84  and  _85
REMARK   33  A    between atoms: _84  and  _87
REMARK   34  A    between atoms: _87  and  _88
REMARK   35  A    between atoms: _88  and  _89
REMARK   36  A    between atoms: _92  and  _94
REMARK   37  A    between atoms: _94  and  _95
REMARK   38  A    between atoms: _94  and  _97
REMARK   39  A    between atoms: _97  and  _98
REMARK   40  A    between atoms: _98  and  _99
REMARK   41  A    between atoms: _99  and  _100
REMARK   42  A    between atoms: _109  and  _111
REMARK   43  A    between atoms: _111  and  _112
REMARK   44  A    between atoms: _111  and  _114
REMARK   45  A    between atoms: _116  and  _118
REMARK   46  A    between atoms: _118  and  _119
REMARK   47  A    between atoms: _118  and  _121
REMARK   48  A    between atoms: _121  and  _122
REMARK   49  A    between atoms: _132  and  _134
REMARK   50  A    between atoms: _134  and  _135
REMARK   51  A    between atoms: _134  and  _137
REMARK   52  A    between atoms: _137  and  _138
REMARK   53  A    between atoms: _141  and  _143
REMARK   54  A    between atoms: _143  and  _144
REMARK   55  A    between atoms: _143  and  _146
REMARK   56  A    between atoms: _146  and  _147
REMARK   57  A    between atoms: _152  and  _153
REMARK   58  A    between atoms: _155  and  _157
REMARK   59  A    between atoms: _157  and  _158
REMARK   60  A    between atoms: _157  and  _160
REMARK   61  A    between atoms: _160  and  _161
REMARK   62  A    between atoms: _164  and  _166
REMARK   63  A    between atoms: _166  and  _167
REMARK   64  A    between atoms: _169  and  _171
REMARK   65  A    between atoms: _171  and  _172
REMARK   66  A    between atoms: _175  and  _177
REMARK   67  A    between atoms: _177  and  _178
REMARK   68  A    between atoms: _177  and  _180
REMARK   69  A    between atoms: _180  and  _181
REMARK   70  A    between atoms: _187  and  _189
REMARK   71  A    between atoms: _189  and  _190
REMARK   72  A    between atoms: _189  and  _192
REMARK   73  A    between atoms: _192  and  _193
REMARK   74  A    between atoms: _198  and  _200
REMARK   75  A    between atoms: _200  and  _201
REMARK   76  A    between atoms: _200  and  _203
REMARK   77  A    between atoms: _203  and  _204
REMARK   78  A    between atoms: _207  and  _209
REMARK   79  A    between atoms: _209  and  _210
REMARK   80  A    between atoms: _209  and  _212
REMARK   81  A    between atoms: _212  and  _213
REMARK   82  A    between atoms: _218  and  _220
REMARK   83  A    between atoms: _220  and  _221
REMARK   84  A    between atoms: _220  and  _223
REMARK   85  A    between atoms: _223  and  _224
REMARK   86  A    between atoms: _227  and  _229
REMARK   87  A    between atoms: _229  and  _230
REMARK   88  A    between atoms: _229  and  _232
REMARK   89  A    between atoms: _235  and  _237
REMARK   90  A    between atoms: _237  and  _238
REMARK   91  A    between atoms: _237  and  _240
REMARK   92  A    between atoms: _240  and  _241
REMARK   93  A    between atoms: _251  and  _253
REMARK   94  A    between atoms: _253  and  _254
REMARK   95  A    between atoms: _253  and  _256
REMARK   96  A    between atoms: _256  and  _257
REMARK   97  A    between atoms: _260  and  _262
REMARK   98  A    between atoms: _262  and  _263
REMARK   99  A    between atoms: _265  and  _267
REMARK  100  A    between atoms: _267  and  _268
REMARK  101  A    between atoms: _267  and  _270
REMARK  102  A    between atoms: _270  and  _271
REMARK  103  A    between atoms: _276  and  _278
REMARK  104  A    between atoms: _278  and  _279
REMARK  105  A    between atoms: _281  and  _283
REMARK  106  A    between atoms: _283  and  _284
REMARK  107  A    between atoms: _283  and  _286
REMARK  108  A    between atoms: _286  and  _287
REMARK                            x       y       z     vdW  Elec       q    Type
REMARK                         _______ _______ _______ _____ _____    ______ ____
ROOT
ATOM      1  O   HOH     1       4.617  37.202   3.281  0.00  0.00    +0.000 OA
ENDROOT
TORSDOF 0
REMARK  Name = ../refined-set-2016/2bt9/2bt9_pocket.pdb
REMARK  108 active torsions:
REMARK  status: ('A' for Active; 'I' for Inactive)
REMARK    1  A    between atoms: _1  and  _3
REMARK    2  A    between atoms: _3  and  _4
REMARK    3  A    between atoms: _3  and  _6
REMARK    4  A    between atoms: _6  and  _7
REMARK    5  A    between atoms: _10  and  _12
REMARK    6  A    between atoms: _12  and  _13
REMARK    7  A    between atoms: _12  and  _15
REMARK    8  A    between atoms: _15  and  _16
REMARK    9  A    between atoms: _26  and  _28
REMARK   10  A    between atoms: _28  and  _29
REMARK   11  A    between atoms: _28  and  _31
REMARK   12  A    between atoms: _31  and  _32
REMARK   13  A    between atoms: _34  and  _36
REMARK   14  A    between atoms: _36  and  _37
REMARK   15  A    between atoms: _36  and  _39
REMARK   16  A    between atoms: _39  and  _40
REMARK   17  A    between atoms: _43  and  _45
REMARK   18  A    between atoms: _45  and  _46
REMARK   19  A    between atoms: _45  and  _48
REMARK   20  A    between atoms: _48  and  _49
REMARK   21  A    between atoms: _49  and  _50
REMARK   22  A    between atoms: _50  and  _51
REMARK   23  A    between atoms: _60  and  _62
REMARK   24  A    between atoms: _62  and  _63
REMARK   25  A    between atoms: _62  and  _65
REMARK   26  A    between atoms: _68  and  _70
REMARK   27  A    between atoms: _70  and  _71
REMARK   28  A    between atoms: _70  and  _73
REMARK   29  A    between atoms: _73  and  _74
REMARK   30  A    between atoms: _79  and  _80
REMARK   31  A    between atoms: _82  and  _84
REMARK   32  A    between atoms: _84  and  _85
REMARK   33  A    between atoms: _84  and  _87
REMARK   34  A    between atoms: _87  and  _88
REMARK   35  A    between atoms: _88  and  _89
REMARK   36  A    between atoms: _92  and  _94
REMARK   37  A    between atoms: _94  and  _95
REMARK   38  A    between atoms: _94  and  _97
REMARK   39  A    between atoms: _97  and  _98
REMARK   40  A    between atoms: _98  and  _99
REMARK   41  A    between atoms: _99  and  _100
REMARK   42  A    between atoms: _109  and  _111
REMARK   43  A    between atoms: _111  and  _112
REMARK   44  A    between atoms: _111  and  _114
REMARK   45  A    between atoms: _116  and  _118
REMARK   46  A    between atoms: _118  and  _119
REMARK   47  A    between atoms: _118  and  _121
REMARK   48  A    between atoms: _121  and  _122
REMARK   49  A    between atoms: _132  and  _134
REMARK   50  A    between atoms: _134  and  _135
REMARK   51  A    between atoms: _134  and  _137
REMARK   52  A    between atoms: _137  and  _138
REMARK   53  A    between atoms: _141  and  _143
REMARK   54  A    between atoms: _143  and  _144
REMARK   55  A    between atoms: _143  and  _146
REMARK   56  A    between atoms: _146  and  _147
REMARK   57  A    between atoms: _152  and  _153
REMARK   58  A    between atoms: _155  and  _157
REMARK   59  A    between atoms: _157  and  _158
REMARK   60  A    between atoms: _157  and  _160
REMARK   61  A    between atoms: _160  and  _161
REMARK   62  A    between atoms: _164  and  _166
REMARK   63  A    between atoms: _166  and  _167
REMARK   64  A    between atoms: _169  and  _171
REMARK   65  A    between atoms: _171  and  _172
REMARK   66  A    between atoms: _175  and  _177
REMARK   67  A    between atoms: _177  and  _178
REMARK   68  A    between atoms: _177  and  _180
REMARK   69  A    between atoms: _180  and  _181
REMARK   70  A    between atoms: _187  and  _189
REMARK   71  A    between atoms: _189  and  _190
REMARK   72  A    between atoms: _189  and  _192
REMARK   73  A    between atoms: _192  and  _193
REMARK   74  A    between atoms: _198  and  _200
REMARK   75  A    between atoms: _200  and  _201
REMARK   76  A    between atoms: _200  and  _203
REMARK   77  A    between atoms: _203  and  _204
REMARK   78  A    between atoms: _207  and  _209
REMARK   79  A    between atoms: _209  and  _210
REMARK   80  A    between atoms: _209  and  _212
REMARK   81  A    between atoms: _212  and  _213
REMARK   82  A    between atoms: _218  and  _220
REMARK   83  A    between atoms: _220  and  _221
REMARK   84  A    between atoms: _220  and  _223
REMARK   85  A    between atoms: _223  and  _224
REMARK   86  A    between atoms: _227  and  _229
REMARK   87  A    between atoms: _229  and  _230
REMARK   88  A    between atoms: _229  and  _232
REMARK   89  A    between atoms: _235  and  _237
REMARK   90  A    between atoms: _237  and  _238
REMARK   91  A    between atoms: _237  and  _240
REMARK   92  A    between atoms: _240  and  _241
REMARK   93  A    between atoms: _251  and  _253
REMARK   94  A    between atoms: _253  and  _254
REMARK   95  A    between atoms: _253  and  _256
REMARK   96  A    between atoms: _256  and  _257
REMARK   97  A    between atoms: _260  and  _262
REMARK   98  A    between atoms: _262  and  _263
REMARK   99  A    between atoms: _265  and  _267
REMARK  100  A    between atoms: _267  and  _268
REMARK  101  A    between atoms: _267  and  _270
REMARK  102  A    between atoms: _270  and  _271
REMARK  103  A    between atoms: _276  and  _278
REMARK  104  A    between atoms: _278  and  _279
REMARK  105  A    between atoms: _281  and  _283
REMARK  106  A    between atoms: _283  and  _284
REMARK  107  A    between atoms: _283  and  _286
REMARK  108  A    between atoms: _286  and  _287
REMARK                            x       y       z     vdW  Elec       q    Type
REMARK                         _______ _______ _______ _____ _____    ______ ____
ROOT
ATOM      1  O   HOH     1       1.733  37.801   1.238  0.00  0.00    +0.000 OA
ENDROOT
TORSDOF 0
REMARK  Name = ../refined-set-2016/2bt9/2bt9_pocket.pdb
REMARK  108 active torsions:
REMARK  status: ('A' for Active; 'I' for Inactive)
REMARK    1  A    between atoms: _1  and  _3
REMARK    2  A    between atoms: _3  and  _4
REMARK    3  A    between atoms: _3  and  _6
REMARK    4  A    between atoms: _6  and  _7
REMARK    5  A    between atoms: _10  and  _12
REMARK    6  A    between atoms: _12  and  _13
REMARK    7  A    between atoms: _12  and  _15
REMARK    8  A    between atoms: _15  and  _16
REMARK    9  A    between atoms: _26  and  _28
REMARK   10  A    between atoms: _28  and  _29
REMARK   11  A    between atoms: _28  and  _31
REMARK   12  A    between atoms: _31  and  _32
REMARK   13  A    between atoms: _34  and  _36
REMARK   14  A    between atoms: _36  and  _37
REMARK   15  A    between atoms: _36  and  _39
REMARK   16  A    between atoms: _39  and  _40
REMARK   17  A    between atoms: _43  and  _45
REMARK   18  A    between atoms: _45  and  _46
REMARK   19  A    between atoms: _45  and  _48
REMARK   20  A    between atoms: _48  and  _49
REMARK   21  A    between atoms: _49  and  _50
REMARK   22  A    between atoms: _50  and  _51
REMARK   23  A    between atoms: _60  and  _62
REMARK   24  A    between atoms: _62  and  _63
REMARK   25  A    between atoms: _62  and  _65
REMARK   26  A    between atoms: _68  and  _70
REMARK   27  A    between atoms: _70  and  _71
REMARK   28  A    between atoms: _70  and  _73
REMARK   29  A    between atoms: _73  and  _74
REMARK   30  A    between atoms: _79  and  _80
REMARK   31  A    between atoms: _82  and  _84
REMARK   32  A    between atoms: _84  and  _85
REMARK   33  A    between atoms: _84  and  _87
REMARK   34  A    between atoms: _87  and  _88
REMARK   35  A    between atoms: _88  and  _89
REMARK   36  A    between atoms: _92  and  _94
REMARK   37  A    between atoms: _94  and  _95
REMARK   38  A    between atoms: _94  and  _97
REMARK   39  A    between atoms: _97  and  _98
REMARK   40  A    between atoms: _98  and  _99
REMARK   41  A    between atoms: _99  and  _100
REMARK   42  A    between atoms: _109  and  _111
REMARK   43  A    between atoms: _111  and  _112
REMARK   44  A    between atoms: _111  and  _114
REMARK   45  A    between atoms: _116  and  _118
REMARK   46  A    between atoms: _118  and  _119
REMARK   47  A    between atoms: _118  and  _121
REMARK   48  A    between atoms: _121  and  _122
REMARK   49  A    between atoms: _132  and  _134
REMARK   50  A    between atoms: _134  and  _135
REMARK   51  A    between atoms: _134  and  _137
REMARK   52  A    between atoms: _137  and  _138
REMARK   53  A    between atoms: _141  and  _143
REMARK   54  A    between atoms: _143  and  _144
REMARK   55  A    between atoms: _143  and  _146
REMARK   56  A    between atoms: _146  and  _147
REMARK   57  A    between atoms: _152  and  _153
REMARK   58  A    between atoms: _155  and  _157
REMARK   59  A    between atoms: _157  and  _158
REMARK   60  A    between atoms: _157  and  _160
REMARK   61  A    between atoms: _160  and  _161
REMARK   62  A    between atoms: _164  and  _166
REMARK   63  A    between atoms: _166  and  _167
REMARK   64  A    between atoms: _169  and  _171
REMARK   65  A    between atoms: _171  and  _172
REMARK   66  A    between atoms: _175  and  _177
REMARK   67  A    between atoms: _177  and  _178
REMARK   68  A    between atoms: _177  and  _180
REMARK   69  A    between atoms: _180  and  _181
REMARK   70  A    between atoms: _187  and  _189
REMARK   71  A    between atoms: _189  and  _190
REMARK   72  A    between atoms: _189  and  _192
REMARK   73  A    between atoms: _192  and  _193
REMARK   74  A    between atoms: _198  and  _200
REMARK   75  A    between atoms: _200  and  _201
REMARK   76  A    between atoms: _200  and  _203
REMARK   77  A    between atoms: _203  and  _204
REMARK   78  A    between atoms: _207  and  _209
REMARK   79  A    between atoms: _209  and  _210
REMARK   80  A    between atoms: _209  and  _212
REMARK   81  A    between atoms: _212  and  _213
REMARK   82  A    between atoms: _218  and  _220
REMARK   83  A    between atoms: _220  and  _221
REMARK   84  A    between atoms: _220  and  _223
REMARK   85  A    between atoms: _223  and  _224
REMARK   86  A    between atoms: _227  and  _229
REMARK   87  A    between atoms: _229  and  _230
REMARK   88  A    between atoms: _229  and  _232
REMARK   89  A    between atoms: _235  and  _237
REMARK   90  A    between atoms: _237  and  _238
REMARK   91  A    between atoms: _237  and  _240
REMARK   92  A    between atoms: _240  and  _241
REMARK   93  A    between atoms: _251  and  _253
REMARK   94  A    between atoms: _253  and  _254
REMARK   95  A    between atoms: _253  and  _256
REMARK   96  A    between atoms: _256  and  _257
REMARK   97  A    between atoms: _260  and  _262
REMARK   98  A    between atoms: _262  and  _263
REMARK   99  A    between atoms: _265  and  _267
REMARK  100  A    between atoms: _267  and  _268
REMARK  101  A    between atoms: _267  and  _270
REMARK  102  A    between atoms: _270  and  _271
REMARK  103  A    between atoms: _276  and  _278
REMARK  104  A    between atoms: _278  and  _279
REMARK  105  A    between atoms: _281  and  _283
REMARK  106  A    between atoms: _283  and  _284
REMARK  107  A    between atoms: _283  and  _286
REMARK  108  A    between atoms: _286  and  _287
REMARK                            x       y       z     vdW  Elec       q    Type
REMARK                         _______ _______ _______ _____ _____    ______ ____
ROOT
ATOM      1  O   HOH     1      -0.311  38.184   6.496  0.00  0.00    +0.000 OA
ENDROOT
TORSDOF 0
REMARK  Name = ../refined-set-2016/2bt9/2bt9_pocket.pdb
REMARK  108 active torsions:
REMARK  status: ('A' for Active; 'I' for Inactive)
REMARK    1  A    between atoms: _1  and  _3
REMARK    2  A    between atoms: _3  and  _4
REMARK    3  A    between atoms: _3  and  _6
REMARK    4  A    between atoms: _6  and  _7
REMARK    5  A    between atoms: _10  and  _12
REMARK    6  A    between atoms: _12  and  _13
REMARK    7  A    between atoms: _12  and  _15
REMARK    8  A    between atoms: _15  and  _16
REMARK    9  A    between atoms: _26  and  _28
REMARK   10  A    between atoms: _28  and  _29
REMARK   11  A    between atoms: _28  and  _31
REMARK   12  A    between atoms: _31  and  _32
REMARK   13  A    between atoms: _34  and  _36
REMARK   14  A    between atoms: _36  and  _37
REMARK   15  A    between atoms: _36  and  _39
REMARK   16  A    between atoms: _39  and  _40
REMARK   17  A    between atoms: _43  and  _45
REMARK   18  A    between atoms: _45  and  _46
REMARK   19  A    between atoms: _45  and  _48
REMARK   20  A    between atoms: _48  and  _49
REMARK   21  A    between atoms: _49  and  _50
REMARK   22  A    between atoms: _50  and  _51
REMARK   23  A    between atoms: _60  and  _62
REMARK   24  A    between atoms: _62  and  _63
REMARK   25  A    between atoms: _62  and  _65
REMARK   26  A    between atoms: _68  and  _70
REMARK   27  A    between atoms: _70  and  _71
REMARK   28  A    between atoms: _70  and  _73
REMARK   29  A    between atoms: _73  and  _74
REMARK   30  A    between atoms: _79  and  _80
REMARK   31  A    between atoms: _82  and  _84
REMARK   32  A    between atoms: _84  and  _85
REMARK   33  A    between atoms: _84  and  _87
REMARK   34  A    between atoms: _87  and  _88
REMARK   35  A    between atoms: _88  and  _89
REMARK   36  A    between atoms: _92  and  _94
REMARK   37  A    between atoms: _94  and  _95
REMARK   38  A    between atoms: _94  and  _97
REMARK   39  A    between atoms: _97  and  _98
REMARK   40  A    between atoms: _98  and  _99
REMARK   41  A    between atoms: _99  and  _100
REMARK   42  A    between atoms: _109  and  _111
REMARK   43  A    between atoms: _111  and  _112
REMARK   44  A    between atoms: _111  and  _114
REMARK   45  A    between atoms: _116  and  _118
REMARK   46  A    between atoms: _118  and  _119
REMARK   47  A    between atoms: _118  and  _121
REMARK   48  A    between atoms: _121  and  _122
REMARK   49  A    between atoms: _132  and  _134
REMARK   50  A    between atoms: _134  and  _135
REMARK   51  A    between atoms: _134  and  _137
REMARK   52  A    between atoms: _137  and  _138
REMARK   53  A    between atoms: _141  and  _143
REMARK   54  A    between atoms: _143  and  _144
REMARK   55  A    between atoms: _143  and  _146
REMARK   56  A    between atoms: _146  and  _147
REMARK   57  A    between atoms: _152  and  _153
REMARK   58  A    between atoms: _155  and  _157
REMARK   59  A    between atoms: _157  and  _158
REMARK   60  A    between atoms: _157  and  _160
REMARK   61  A    between atoms: _160  and  _161
REMARK   62  A    between atoms: _164  and  _166
REMARK   63  A    between atoms: _166  and  _167
REMARK   64  A    between atoms: _169  and  _171
REMARK   65  A    between atoms: _171  and  _172
REMARK   66  A    between atoms: _175  and  _177
REMARK   67  A    between atoms: _177  and  _178
REMARK   68  A    between atoms: _177  and  _180
REMARK   69  A    between atoms: _180  and  _181
REMARK   70  A    between atoms: _187  and  _189
REMARK   71  A    between atoms: _189  and  _190
REMARK   72  A    between atoms: _189  and  _192
REMARK   73  A    between atoms: _192  and  _193
REMARK   74  A    between atoms: _198  and  _200
REMARK   75  A    between atoms: _200  and  _201
REMARK   76  A    between atoms: _200  and  _203
REMARK   77  A    between atoms: _203  and  _204
REMARK   78  A    between atoms: _207  and  _209
REMARK   79  A    between atoms: _209  and  _210
REMARK   80  A    between atoms: _209  and  _212
REMARK   81  A    between atoms: _212  and  _213
REMARK   82  A    between atoms: _218  and  _220
REMARK   83  A    between atoms: _220  and  _221
REMARK   84  A    between atoms: _220  and  _223
REMARK   85  A    between atoms: _223  and  _224
REMARK   86  A    between atoms: _227  and  _229
REMARK   87  A    between atoms: _229  and  _230
REMARK   88  A    between atoms: _229  and  _232
REMARK   89  A    between atoms: _235  and  _237
REMARK   90  A    between atoms: _237  and  _238
REMARK   91  A    between atoms: _237  and  _240
REMARK   92  A    between atoms: _240  and  _241
REMARK   93  A    between atoms: _251  and  _253
REMARK   94  A    between atoms: _253  and  _254
REMARK   95  A    between atoms: _253  and  _256
REMARK   96  A    between atoms: _256  and  _257
REMARK   97  A    between atoms: _260  and  _262
REMARK   98  A    between atoms: _262  and  _263
REMARK   99  A    between atoms: _265  and  _267
REMARK  100  A    between atoms: _267  and  _268
REMARK  101  A    between atoms: _267  and  _270
REMARK  102  A    between atoms: _270  and  _271
REMARK  103  A    between atoms: _276  and  _278
REMARK  104  A    between atoms: _278  and  _279
REMARK  105  A    between atoms: _281  and  _283
REMARK  106  A    between atoms: _283  and  _284
REMARK  107  A    between atoms: _283  and  _286
REMARK  108  A    between atoms: _286  and  _287
REMARK                            x       y       z     vdW  Elec       q    Type
REMARK                         _______ _______ _______ _____ _____    ______ ____
ROOT
ATOM      1  O   HOH     1      -3.582  41.295   6.238  0.00  0.00    +0.000 OA
ENDROOT
TORSDOF 0
REMARK  Name = ../refined-set-2016/2bt9/2bt9_pocket.pdb
REMARK  108 active torsions:
REMARK  status: ('A' for Active; 'I' for Inactive)
REMARK    1  A    between atoms: _1  and  _3
REMARK    2  A    between atoms: _3  and  _4
REMARK    3  A    between atoms: _3  and  _6
REMARK    4  A    between atoms: _6  and  _7
REMARK    5  A    between atoms: _10  and  _12
REMARK    6  A    between atoms: _12  and  _13
REMARK    7  A    between atoms: _12  and  _15
REMARK    8  A    between atoms: _15  and  _16
REMARK    9  A    between atoms: _26  and  _28
REMARK   10  A    between atoms: _28  and  _29
REMARK   11  A    between atoms: _28  and  _31
REMARK   12  A    between atoms: _31  and  _32
REMARK   13  A    between atoms: _34  and  _36
REMARK   14  A    between atoms: _36  and  _37
REMARK   15  A    between atoms: _36  and  _39
REMARK   16  A    between atoms: _39  and  _40
REMARK   17  A    between atoms: _43  and  _45
REMARK   18  A    between atoms: _45  and  _46
REMARK   19  A    between atoms: _45  and  _48
REMARK   20  A    between atoms: _48  and  _49
REMARK   21  A    between atoms: _49  and  _50
REMARK   22  A    between atoms: _50  and  _51
REMARK   23  A    between atoms: _60  and  _62
REMARK   24  A    between atoms: _62  and  _63
REMARK   25  A    between atoms: _62  and  _65
REMARK   26  A    between atoms: _68  and  _70
REMARK   27  A    between atoms: _70  and  _71
REMARK   28  A    between atoms: _70  and  _73
REMARK   29  A    between atoms: _73  and  _74
REMARK   30  A    between atoms: _79  and  _80
REMARK   31  A    between atoms: _82  and  _84
REMARK   32  A    between atoms: _84  and  _85
REMARK   33  A    between atoms: _84  and  _87
REMARK   34  A    between atoms: _87  and  _88
REMARK   35  A    between atoms: _88  and  _89
REMARK   36  A    between atoms: _92  and  _94
REMARK   37  A    between atoms: _94  and  _95
REMARK   38  A    between atoms: _94  and  _97
REMARK   39  A    between atoms: _97  and  _98
REMARK   40  A    between atoms: _98  and  _99
REMARK   41  A    between atoms: _99  and  _100
REMARK   42  A    between atoms: _109  and  _111
REMARK   43  A    between atoms: _111  and  _112
REMARK   44  A    between atoms: _111  and  _114
REMARK   45  A    between atoms: _116  and  _118
REMARK   46  A    between atoms: _118  and  _119
REMARK   47  A    between atoms: _118  and  _121
REMARK   48  A    between atoms: _121  and  _122
REMARK   49  A    between atoms: _132  and  _134
REMARK   50  A    between atoms: _134  and  _135
REMARK   51  A    between atoms: _134  and  _137
REMARK   52  A    between atoms: _137  and  _138
REMARK   53  A    between atoms: _141  and  _143
REMARK   54  A    between atoms: _143  and  _144
REMARK   55  A    between atoms: _143  and  _146
REMARK   56  A    between atoms: _146  and  _147
REMARK   57  A    between atoms: _152  and  _153
REMARK   58  A    between atoms: _155  and  _157
REMARK   59  A    between atoms: _157  and  _158
REMARK   60  A    between atoms: _157  and  _160
REMARK   61  A    between atoms: _160  and  _161
REMARK   62  A    between atoms: _164  and  _166
REMARK   63  A    between atoms: _166  and  _167
REMARK   64  A    between atoms: _169  and  _171
REMARK   65  A    between atoms: _171  and  _172
REMARK   66  A    between atoms: _175  and  _177
REMARK   67  A    between atoms: _177  and  _178
REMARK   68  A    between atoms: _177  and  _180
REMARK   69  A    between atoms: _180  and  _181
REMARK   70  A    between atoms: _187  and  _189
REMARK   71  A    between atoms: _189  and  _190
REMARK   72  A    between atoms: _189  and  _192
REMARK   73  A    between atoms: _192  and  _193
REMARK   74  A    between atoms: _198  and  _200
REMARK   75  A    between atoms: _200  and  _201
REMARK   76  A    between atoms: _200  and  _203
REMARK   77  A    between atoms: _203  and  _204
REMARK   78  A    between atoms: _207  and  _209
REMARK   79  A    between atoms: _209  and  _210
REMARK   80  A    between atoms: _209  and  _212
REMARK   81  A    between atoms: _212  and  _213
REMARK   82  A    between atoms: _218  and  _220
REMARK   83  A    between atoms: _220  and  _221
REMARK   84  A    between atoms: _220  and  _223
REMARK   85  A    between atoms: _223  and  _224
REMARK   86  A    between atoms: _227  and  _229
REMARK   87  A    between atoms: _229  and  _230
REMARK   88  A    between atoms: _229  and  _232
REMARK   89  A    between atoms: _235  and  _237
REMARK   90  A    between atoms: _237  and  _238
REMARK   91  A    between atoms: _237  and  _240
REMARK   92  A    between atoms: _240  and  _241
REMARK   93  A    between atoms: _251  and  _253
REMARK   94  A    between atoms: _253  and  _254
REMARK   95  A    between atoms: _253  and  _256
REMARK   96  A    between atoms: _256  and  _257
REMARK   97  A    between atoms: _260  and  _262
REMARK   98  A    between atoms: _262  and  _263
REMARK   99  A    between atoms: _265  and  _267
REMARK  100  A    between atoms: _267  and  _268
REMARK  101  A    between atoms: _267  and  _270
REMARK  102  A    between atoms: _270  and  _271
REMARK  103  A    between atoms: _276  and  _278
REMARK  104  A    between atoms: _278  and  _279
REMARK  105  A    between atoms: _281  and  _283
REMARK  106  A    between atoms: _283  and  _284
REMARK  107  A    between atoms: _283  and  _286
REMARK  108  A    between atoms: _286  and  _287
REMARK                            x       y       z     vdW  Elec       q    Type
REMARK                         _______ _______ _______ _____ _____    ______ ____
ROOT
ATOM      1  O   HOH     1      -2.854  34.937   6.802  0.00  0.00    +0.000 OA
ENDROOT
TORSDOF 0
REMARK  Name = ../refined-set-2016/2bt9/2bt9_pocket.pdb
REMARK  108 active torsions:
REMARK  status: ('A' for Active; 'I' for Inactive)
REMARK    1  A    between atoms: _1  and  _3
REMARK    2  A    between atoms: _3  and  _4
REMARK    3  A    between atoms: _3  and  _6
REMARK    4  A    between atoms: _6  and  _7
REMARK    5  A    between atoms: _10  and  _12
REMARK    6  A    between atoms: _12  and  _13
REMARK    7  A    between atoms: _12  and  _15
REMARK    8  A    between atoms: _15  and  _16
REMARK    9  A    between atoms: _26  and  _28
REMARK   10  A    between atoms: _28  and  _29
REMARK   11  A    between atoms: _28  and  _31
REMARK   12  A    between atoms: _31  and  _32
REMARK   13  A    between atoms: _34  and  _36
REMARK   14  A    between atoms: _36  and  _37
REMARK   15  A    between atoms: _36  and  _39
REMARK   16  A    between atoms: _39  and  _40
REMARK   17  A    between atoms: _43  and  _45
REMARK   18  A    between atoms: _45  and  _46
REMARK   19  A    between atoms: _45  and  _48
REMARK   20  A    between atoms: _48  and  _49
REMARK   21  A    between atoms: _49  and  _50
REMARK   22  A    between atoms: _50  and  _51
REMARK   23  A    between atoms: _60  and  _62
REMARK   24  A    between atoms: _62  and  _63
REMARK   25  A    between atoms: _62  and  _65
REMARK   26  A    between atoms: _68  and  _70
REMARK   27  A    between atoms: _70  and  _71
REMARK   28  A    between atoms: _70  and  _73
REMARK   29  A    between atoms: _73  and  _74
REMARK   30  A    between atoms: _79  and  _80
REMARK   31  A    between atoms: _82  and  _84
REMARK   32  A    between atoms: _84  and  _85
REMARK   33  A    between atoms: _84  and  _87
REMARK   34  A    between atoms: _87  and  _88
REMARK   35  A    between atoms: _88  and  _89
REMARK   36  A    between atoms: _92  and  _94
REMARK   37  A    between atoms: _94  and  _95
REMARK   38  A    between atoms: _94  and  _97
REMARK   39  A    between atoms: _97  and  _98
REMARK   40  A    between atoms: _98  and  _99
REMARK   41  A    between atoms: _99  and  _100
REMARK   42  A    between atoms: _109  and  _111
REMARK   43  A    between atoms: _111  and  _112
REMARK   44  A    between atoms: _111  and  _114
REMARK   45  A    between atoms: _116  and  _118
REMARK   46  A    between atoms: _118  and  _119
REMARK   47  A    between atoms: _118  and  _121
REMARK   48  A    between atoms: _121  and  _122
REMARK   49  A    between atoms: _132  and  _134
REMARK   50  A    between atoms: _134  and  _135
REMARK   51  A    between atoms: _134  and  _137
REMARK   52  A    between atoms: _137  and  _138
REMARK   53  A    between atoms: _141  and  _143
REMARK   54  A    between atoms: _143  and  _144
REMARK   55  A    between atoms: _143  and  _146
REMARK   56  A    between atoms: _146  and  _147
REMARK   57  A    between atoms: _152  and  _153
REMARK   58  A    between atoms: _155  and  _157
REMARK   59  A    between atoms: _157  and  _158
REMARK   60  A    between atoms: _157  and  _160
REMARK   61  A    between atoms: _160  and  _161
REMARK   62  A    between atoms: _164  and  _166
REMARK   63  A    between atoms: _166  and  _167
REMARK   64  A    between atoms: _169  and  _171
REMARK   65  A    between atoms: _171  and  _172
REMARK   66  A    between atoms: _175  and  _177
REMARK   67  A    between atoms: _177  and  _178
REMARK   68  A    between atoms: _177  and  _180
REMARK   69  A    between atoms: _180  and  _181
REMARK   70  A    between atoms: _187  and  _189
REMARK   71  A    between atoms: _189  and  _190
REMARK   72  A    between atoms: _189  and  _192
REMARK   73  A    between atoms: _192  and  _193
REMARK   74  A    between atoms: _198  and  _200
REMARK   75  A    between atoms: _200  and  _201
REMARK   76  A    between atoms: _200  and  _203
REMARK   77  A    between atoms: _203  and  _204
REMARK   78  A    between atoms: _207  and  _209
REMARK   79  A    between atoms: _209  and  _210
REMARK   80  A    between atoms: _209  and  _212
REMARK   81  A    between atoms: _212  and  _213
REMARK   82  A    between atoms: _218  and  _220
REMARK   83  A    between atoms: _220  and  _221
REMARK   84  A    between atoms: _220  and  _223
REMARK   85  A    between atoms: _223  and  _224
REMARK   86  A    between atoms: _227  and  _229
REMARK   87  A    between atoms: _229  and  _230
REMARK   88  A    between atoms: _229  and  _232
REMARK   89  A    between atoms: _235  and  _237
REMARK   90  A    between atoms: _237  and  _238
REMARK   91  A    between atoms: _237  and  _240
REMARK   92  A    between atoms: _240  and  _241
REMARK   93  A    between atoms: _251  and  _253
REMARK   94  A    between atoms: _253  and  _254
REMARK   95  A    between atoms: _253  and  _256
REMARK   96  A    between atoms: _256  and  _257
REMARK   97  A    between atoms: _260  and  _262
REMARK   98  A    between atoms: _262  and  _263
REMARK   99  A    between atoms: _265  and  _267
REMARK  100  A    between atoms: _267  and  _268
REMARK  101  A    between atoms: _267  and  _270
REMARK  102  A    between atoms: _270  and  _271
REMARK  103  A    between atoms: _276  and  _278
REMARK  104  A    between atoms: _278  and  _279
REMARK  105  A    between atoms: _281  and  _283
REMARK  106  A    between atoms: _283  and  _284
REMARK  107  A    between atoms: _283  and  _286
REMARK  108  A    between atoms: _286  and  _287
REMARK                            x       y       z     vdW  Elec       q    Type
REMARK                         _______ _______ _______ _____ _____    ______ ____
ROOT
ATOM      1  O   HOH     1      -7.987  39.922   6.229  0.00  0.00    +0.000 OA
ENDROOT
TORSDOF 0
REMARK  Name = ../refined-set-2016/2bt9/2bt9_pocket.pdb
REMARK  108 active torsions:
REMARK  status: ('A' for Active; 'I' for Inactive)
REMARK    1  A    between atoms: _1  and  _3
REMARK    2  A    between atoms: _3  and  _4
REMARK    3  A    between atoms: _3  and  _6
REMARK    4  A    between atoms: _6  and  _7
REMARK    5  A    between atoms: _10  and  _12
REMARK    6  A    between atoms: _12  and  _13
REMARK    7  A    between atoms: _12  and  _15
REMARK    8  A    between atoms: _15  and  _16
REMARK    9  A    between atoms: _26  and  _28
REMARK   10  A    between atoms: _28  and  _29
REMARK   11  A    between atoms: _28  and  _31
REMARK   12  A    between atoms: _31  and  _32
REMARK   13  A    between atoms: _34  and  _36
REMARK   14  A    between atoms: _36  and  _37
REMARK   15  A    between atoms: _36  and  _39
REMARK   16  A    between atoms: _39  and  _40
REMARK   17  A    between atoms: _43  and  _45
REMARK   18  A    between atoms: _45  and  _46
REMARK   19  A    between atoms: _45  and  _48
REMARK   20  A    between atoms: _48  and  _49
REMARK   21  A    between atoms: _49  and  _50
REMARK   22  A    between atoms: _50  and  _51
REMARK   23  A    between atoms: _60  and  _62
REMARK   24  A    between atoms: _62  and  _63
REMARK   25  A    between atoms: _62  and  _65
REMARK   26  A    between atoms: _68  and  _70
REMARK   27  A    between atoms: _70  and  _71
REMARK   28  A    between atoms: _70  and  _73
REMARK   29  A    between atoms: _73  and  _74
REMARK   30  A    between atoms: _79  and  _80
REMARK   31  A    between atoms: _82  and  _84
REMARK   32  A    between atoms: _84  and  _85
REMARK   33  A    between atoms: _84  and  _87
REMARK   34  A    between atoms: _87  and  _88
REMARK   35  A    between atoms: _88  and  _89
REMARK   36  A    between atoms: _92  and  _94
REMARK   37  A    between atoms: _94  and  _95
REMARK   38  A    between atoms: _94  and  _97
REMARK   39  A    between atoms: _97  and  _98
REMARK   40  A    between atoms: _98  and  _99
REMARK   41  A    between atoms: _99  and  _100
REMARK   42  A    between atoms: _109  and  _111
REMARK   43  A    between atoms: _111  and  _112
REMARK   44  A    between atoms: _111  and  _114
REMARK   45  A    between atoms: _116  and  _118
REMARK   46  A    between atoms: _118  and  _119
REMARK   47  A    between atoms: _118  and  _121
REMARK   48  A    between atoms: _121  and  _122
REMARK   49  A    between atoms: _132  and  _134
REMARK   50  A    between atoms: _134  and  _135
REMARK   51  A    between atoms: _134  and  _137
REMARK   52  A    between atoms: _137  and  _138
REMARK   53  A    between atoms: _141  and  _143
REMARK   54  A    between atoms: _143  and  _144
REMARK   55  A    between atoms: _143  and  _146
REMARK   56  A    between atoms: _146  and  _147
REMARK   57  A    between atoms: _152  and  _153
REMARK   58  A    between atoms: _155  and  _157
REMARK   59  A    between atoms: _157  and  _158
REMARK   60  A    between atoms: _157  and  _160
REMARK   61  A    between atoms: _160  and  _161
REMARK   62  A    between atoms: _164  and  _166
REMARK   63  A    between atoms: _166  and  _167
REMARK   64  A    between atoms: _169  and  _171
REMARK   65  A    between atoms: _171  and  _172
REMARK   66  A    between atoms: _175  and  _177
REMARK   67  A    between atoms: _177  and  _178
REMARK   68  A    between atoms: _177  and  _180
REMARK   69  A    between atoms: _180  and  _181
REMARK   70  A    between atoms: _187  and  _189
REMARK   71  A    between atoms: _189  and  _190
REMARK   72  A    between atoms: _189  and  _192
REMARK   73  A    between atoms: _192  and  _193
REMARK   74  A    between atoms: _198  and  _200
REMARK   75  A    between atoms: _200  and  _201
REMARK   76  A    between atoms: _200  and  _203
REMARK   77  A    between atoms: _203  and  _204
REMARK   78  A    between atoms: _207  and  _209
REMARK   79  A    between atoms: _209  and  _210
REMARK   80  A    between atoms: _209  and  _212
REMARK   81  A    between atoms: _212  and  _213
REMARK   82  A    between atoms: _218  and  _220
REMARK   83  A    between atoms: _220  and  _221
REMARK   84  A    between atoms: _220  and  _223
REMARK   85  A    between atoms: _223  and  _224
REMARK   86  A    between atoms: _227  and  _229
REMARK   87  A    between atoms: _229  and  _230
REMARK   88  A    between atoms: _229  and  _232
REMARK   89  A    between atoms: _235  and  _237
REMARK   90  A    between atoms: _237  and  _238
REMARK   91  A    between atoms: _237  and  _240
REMARK   92  A    between atoms: _240  and  _241
REMARK   93  A    between atoms: _251  and  _253
REMARK   94  A    between atoms: _253  and  _254
REMARK   95  A    between atoms: _253  and  _256
REMARK   96  A    between atoms: _256  and  _257
REMARK   97  A    between atoms: _260  and  _262
REMARK   98  A    between atoms: _262  and  _263
REMARK   99  A    between atoms: _265  and  _267
REMARK  100  A    between atoms: _267  and  _268
REMARK  101  A    between atoms: _267  and  _270
REMARK  102  A    between atoms: _270  and  _271
REMARK  103  A    between atoms: _276  and  _278
REMARK  104  A    between atoms: _278  and  _279
REMARK  105  A    between atoms: _281  and  _283
REMARK  106  A    between atoms: _283  and  _284
REMARK  107  A    between atoms: _283  and  _286
REMARK  108  A    between atoms: _286  and  _287
REMARK                            x       y       z     vdW  Elec       q    Type
REMARK                         _______ _______ _______ _____ _____    ______ ____
ROOT
ATOM      1  O   HOH     1      -5.706  36.025 -10.797  0.00  0.00    +0.000 OA
ENDROOT
TORSDOF 0
REMARK  Name = ../refined-set-2016/2bt9/2bt9_pocket.pdb
REMARK  108 active torsions:
REMARK  status: ('A' for Active; 'I' for Inactive)
REMARK    1  A    between atoms: _1  and  _3
REMARK    2  A    between atoms: _3  and  _4
REMARK    3  A    between atoms: _3  and  _6
REMARK    4  A    between atoms: _6  and  _7
REMARK    5  A    between atoms: _10  and  _12
REMARK    6  A    between atoms: _12  and  _13
REMARK    7  A    between atoms: _12  and  _15
REMARK    8  A    between atoms: _15  and  _16
REMARK    9  A    between atoms: _26  and  _28
REMARK   10  A    between atoms: _28  and  _29
REMARK   11  A    between atoms: _28  and  _31
REMARK   12  A    between atoms: _31  and  _32
REMARK   13  A    between atoms: _34  and  _36
REMARK   14  A    between atoms: _36  and  _37
REMARK   15  A    between atoms: _36  and  _39
REMARK   16  A    between atoms: _39  and  _40
REMARK   17  A    between atoms: _43  and  _45
REMARK   18  A    between atoms: _45  and  _46
REMARK   19  A    between atoms: _45  and  _48
REMARK   20  A    between atoms: _48  and  _49
REMARK   21  A    between atoms: _49  and  _50
REMARK   22  A    between atoms: _50  and  _51
REMARK   23  A    between atoms: _60  and  _62
REMARK   24  A    between atoms: _62  and  _63
REMARK   25  A    between atoms: _62  and  _65
REMARK   26  A    between atoms: _68  and  _70
REMARK   27  A    between atoms: _70  and  _71
REMARK   28  A    between atoms: _70  and  _73
REMARK   29  A    between atoms: _73  and  _74
REMARK   30  A    between atoms: _79  and  _80
REMARK   31  A    between atoms: _82  and  _84
REMARK   32  A    between atoms: _84  and  _85
REMARK   33  A    between atoms: _84  and  _87
REMARK   34  A    between atoms: _87  and  _88
REMARK   35  A    between atoms: _88  and  _89
REMARK   36  A    between atoms: _92  and  _94
REMARK   37  A    between atoms: _94  and  _95
REMARK   38  A    between atoms: _94  and  _97
REMARK   39  A    between atoms: _97  and  _98
REMARK   40  A    between atoms: _98  and  _99
REMARK   41  A    between atoms: _99  and  _100
REMARK   42  A    between atoms: _109  and  _111
REMARK   43  A    between atoms: _111  and  _112
REMARK   44  A    between atoms: _111  and  _114
REMARK   45  A    between atoms: _116  and  _118
REMARK   46  A    between atoms: _118  and  _119
REMARK   47  A    between atoms: _118  and  _121
REMARK   48  A    between atoms: _121  and  _122
REMARK   49  A    between atoms: _132  and  _134
REMARK   50  A    between atoms: _134  and  _135
REMARK   51  A    between atoms: _134  and  _137
REMARK   52  A    between atoms: _137  and  _138
REMARK   53  A    between atoms: _141  and  _143
REMARK   54  A    between atoms: _143  and  _144
REMARK   55  A    between atoms: _143  and  _146
REMARK   56  A    between atoms: _146  and  _147
REMARK   57  A    between atoms: _152  and  _153
REMARK   58  A    between atoms: _155  and  _157
REMARK   59  A    between atoms: _157  and  _158
REMARK   60  A    between atoms: _157  and  _160
REMARK   61  A    between atoms: _160  and  _161
REMARK   62  A    between atoms: _164  and  _166
REMARK   63  A    between atoms: _166  and  _167
REMARK   64  A    between atoms: _169  and  _171
REMARK   65  A    between atoms: _171  and  _172
REMARK   66  A    between atoms: _175  and  _177
REMARK   67  A    between atoms: _177  and  _178
REMARK   68  A    between atoms: _177  and  _180
REMARK   69  A    between atoms: _180  and  _181
REMARK   70  A    between atoms: _187  and  _189
REMARK   71  A    between atoms: _189  and  _190
REMARK   72  A    between atoms: _189  and  _192
REMARK   73  A    between atoms: _192  and  _193
REMARK   74  A    between atoms: _198  and  _200
REMARK   75  A    between atoms: _200  and  _201
REMARK   76  A    between atoms: _200  and  _203
REMARK   77  A    between atoms: _203  and  _204
REMARK   78  A    between atoms: _207  and  _209
REMARK   79  A    between atoms: _209  and  _210
REMARK   80  A    between atoms: _209  and  _212
REMARK   81  A    between atoms: _212  and  _213
REMARK   82  A    between atoms: _218  and  _220
REMARK   83  A    between atoms: _220  and  _221
REMARK   84  A    between atoms: _220  and  _223
REMARK   85  A    between atoms: _223  and  _224
REMARK   86  A    between atoms: _227  and  _229
REMARK   87  A    between atoms: _229  and  _230
REMARK   88  A    between atoms: _229  and  _232
REMARK   89  A    between atoms: _235  and  _237
REMARK   90  A    between atoms: _237  and  _238
REMARK   91  A    between atoms: _237  and  _240
REMARK   92  A    between atoms: _240  and  _241
REMARK   93  A    between atoms: _251  and  _253
REMARK   94  A    between atoms: _253  and  _254
REMARK   95  A    between atoms: _253  and  _256
REMARK   96  A    between atoms: _256  and  _257
REMARK   97  A    between atoms: _260  and  _262
REMARK   98  A    between atoms: _262  and  _263
REMARK   99  A    between atoms: _265  and  _267
REMARK  100  A    between atoms: _267  and  _268
REMARK  101  A    between atoms: _267  and  _270
REMARK  102  A    between atoms: _270  and  _271
REMARK  103  A    between atoms: _276  and  _278
REMARK  104  A    between atoms: _278  and  _279
REMARK  105  A    between atoms: _281  and  _283
REMARK  106  A    between atoms: _283  and  _284
REMARK  107  A    between atoms: _283  and  _286
REMARK  108  A    between atoms: _286  and  _287
REMARK                            x       y       z     vdW  Elec       q    Type
REMARK                         _______ _______ _______ _____ _____    ______ ____
ROOT
ATOM      1  O   HOH     1      -8.386  38.691  -9.458  0.00  0.00    +0.000 OA
ENDROOT
TORSDOF 0
REMARK  Name = ../refined-set-2016/2bt9/2bt9_pocket.pdb
REMARK  108 active torsions:
REMARK  status: ('A' for Active; 'I' for Inactive)
REMARK    1  A    between atoms: _1  and  _3
REMARK    2  A    between atoms: _3  and  _4
REMARK    3  A    between atoms: _3  and  _6
REMARK    4  A    between atoms: _6  and  _7
REMARK    5  A    between atoms: _10  and  _12
REMARK    6  A    between atoms: _12  and  _13
REMARK    7  A    between atoms: _12  and  _15
REMARK    8  A    between atoms: _15  and  _16
REMARK    9  A    between atoms: _26  and  _28
REMARK   10  A    between atoms: _28  and  _29
REMARK   11  A    between atoms: _28  and  _31
REMARK   12  A    between atoms: _31  and  _32
REMARK   13  A    between atoms: _34  and  _36
REMARK   14  A    between atoms: _36  and  _37
REMARK   15  A    between atoms: _36  and  _39
REMARK   16  A    between atoms: _39  and  _40
REMARK   17  A    between atoms: _43  and  _45
REMARK   18  A    between atoms: _45  and  _46
REMARK   19  A    between atoms: _45  and  _48
REMARK   20  A    between atoms: _48  and  _49
REMARK   21  A    between atoms: _49  and  _50
REMARK   22  A    between atoms: _50  and  _51
REMARK   23  A    between atoms: _60  and  _62
REMARK   24  A    between atoms: _62  and  _63
REMARK   25  A    between atoms: _62  and  _65
REMARK   26  A    between atoms: _68  and  _70
REMARK   27  A    between atoms: _70  and  _71
REMARK   28  A    between atoms: _70  and  _73
REMARK   29  A    between atoms: _73  and  _74
REMARK   30  A    between atoms: _79  and  _80
REMARK   31  A    between atoms: _82  and  _84
REMARK   32  A    between atoms: _84  and  _85
REMARK   33  A    between atoms: _84  and  _87
REMARK   34  A    between atoms: _87  and  _88
REMARK   35  A    between atoms: _88  and  _89
REMARK   36  A    between atoms: _92  and  _94
REMARK   37  A    between atoms: _94  and  _95
REMARK   38  A    between atoms: _94  and  _97
REMARK   39  A    between atoms: _97  and  _98
REMARK   40  A    between atoms: _98  and  _99
REMARK   41  A    between atoms: _99  and  _100
REMARK   42  A    between atoms: _109  and  _111
REMARK   43  A    between atoms: _111  and  _112
REMARK   44  A    between atoms: _111  and  _114
REMARK   45  A    between atoms: _116  and  _118
REMARK   46  A    between atoms: _118  and  _119
REMARK   47  A    between atoms: _118  and  _121
REMARK   48  A    between atoms: _121  and  _122
REMARK   49  A    between atoms: _132  and  _134
REMARK   50  A    between atoms: _134  and  _135
REMARK   51  A    between atoms: _134  and  _137
REMARK   52  A    between atoms: _137  and  _138
REMARK   53  A    between atoms: _141  and  _143
REMARK   54  A    between atoms: _143  and  _144
REMARK   55  A    between atoms: _143  and  _146
REMARK   56  A    between atoms: _146  and  _147
REMARK   57  A    between atoms: _152  and  _153
REMARK   58  A    between atoms: _155  and  _157
REMARK   59  A    between atoms: _157  and  _158
REMARK   60  A    between atoms: _157  and  _160
REMARK   61  A    between atoms: _160  and  _161
REMARK   62  A    between atoms: _164  and  _166
REMARK   63  A    between atoms: _166  and  _167
REMARK   64  A    between atoms: _169  and  _171
REMARK   65  A    between atoms: _171  and  _172
REMARK   66  A    between atoms: _175  and  _177
REMARK   67  A    between atoms: _177  and  _178
REMARK   68  A    between atoms: _177  and  _180
REMARK   69  A    between atoms: _180  and  _181
REMARK   70  A    between atoms: _187  and  _189
REMARK   71  A    between atoms: _189  and  _190
REMARK   72  A    between atoms: _189  and  _192
REMARK   73  A    between atoms: _192  and  _193
REMARK   74  A    between atoms: _198  and  _200
REMARK   75  A    between atoms: _200  and  _201
REMARK   76  A    between atoms: _200  and  _203
REMARK   77  A    between atoms: _203  and  _204
REMARK   78  A    between atoms: _207  and  _209
REMARK   79  A    between atoms: _209  and  _210
REMARK   80  A    between atoms: _209  and  _212
REMARK   81  A    between atoms: _212  and  _213
REMARK   82  A    between atoms: _218  and  _220
REMARK   83  A    between atoms: _220  and  _221
REMARK   84  A    between atoms: _220  and  _223
REMARK   85  A    between atoms: _223  and  _224
REMARK   86  A    between atoms: _227  and  _229
REMARK   87  A    between atoms: _229  and  _230
REMARK   88  A    between atoms: _229  and  _232
REMARK   89  A    between atoms: _235  and  _237
REMARK   90  A    between atoms: _237  and  _238
REMARK   91  A    between atoms: _237  and  _240
REMARK   92  A    between atoms: _240  and  _241
REMARK   93  A    between atoms: _251  and  _253
REMARK   94  A    between atoms: _253  and  _254
REMARK   95  A    between atoms: _253  and  _256
REMARK   96  A    between atoms: _256  and  _257
REMARK   97  A    between atoms: _260  and  _262
REMARK   98  A    between atoms: _262  and  _263
REMARK   99  A    between atoms: _265  and  _267
REMARK  100  A    between atoms: _267  and  _268
REMARK  101  A    between atoms: _267  and  _270
REMARK  102  A    between atoms: _270  and  _271
REMARK  103  A    between atoms: _276  and  _278
REMARK  104  A    between atoms: _278  and  _279
REMARK  105  A    between atoms: _281  and  _283
REMARK  106  A    between atoms: _283  and  _284
REMARK  107  A    between atoms: _283  and  _286
REMARK  108  A    between atoms: _286  and  _287
REMARK                            x       y       z     vdW  Elec       q    Type
REMARK                         _______ _______ _______ _____ _____    ______ ____
ROOT
ATOM      1  O   HOH     1      -5.540  38.199  -7.616  0.00  0.00    +0.000 OA
ENDROOT
TORSDOF 0
REMARK  Name = ../refined-set-2016/2bt9/2bt9_pocket.pdb
REMARK  108 active torsions:
REMARK  status: ('A' for Active; 'I' for Inactive)
REMARK    1  A    between atoms: _1  and  _3
REMARK    2  A    between atoms: _3  and  _4
REMARK    3  A    between atoms: _3  and  _6
REMARK    4  A    between atoms: _6  and  _7
REMARK    5  A    between atoms: _10  and  _12
REMARK    6  A    between atoms: _12  and  _13
REMARK    7  A    between atoms: _12  and  _15
REMARK    8  A    between atoms: _15  and  _16
REMARK    9  A    between atoms: _26  and  _28
REMARK   10  A    between atoms: _28  and  _29
REMARK   11  A    between atoms: _28  and  _31
REMARK   12  A    between atoms: _31  and  _32
REMARK   13  A    between atoms: _34  and  _36
REMARK   14  A    between atoms: _36  and  _37
REMARK   15  A    between atoms: _36  and  _39
REMARK   16  A    between atoms: _39  and  _40
REMARK   17  A    between atoms: _43  and  _45
REMARK   18  A    between atoms: _45  and  _46
REMARK   19  A    between atoms: _45  and  _48
REMARK   20  A    between atoms: _48  and  _49
REMARK   21  A    between atoms: _49  and  _50
REMARK   22  A    between atoms: _50  and  _51
REMARK   23  A    between atoms: _60  and  _62
REMARK   24  A    between atoms: _62  and  _63
REMARK   25  A    between atoms: _62  and  _65
REMARK   26  A    between atoms: _68  and  _70
REMARK   27  A    between atoms: _70  and  _71
REMARK   28  A    between atoms: _70  and  _73
REMARK   29  A    between atoms: _73  and  _74
REMARK   30  A    between atoms: _79  and  _80
REMARK   31  A    between atoms: _82  and  _84
REMARK   32  A    between atoms: _84  and  _85
REMARK   33  A    between atoms: _84  and  _87
REMARK   34  A    between atoms: _87  and  _88
REMARK   35  A    between atoms: _88  and  _89
REMARK   36  A    between atoms: _92  and  _94
REMARK   37  A    between atoms: _94  and  _95
REMARK   38  A    between atoms: _94  and  _97
REMARK   39  A    between atoms: _97  and  _98
REMARK   40  A    between atoms: _98  and  _99
REMARK   41  A    between atoms: _99  and  _100
REMARK   42  A    between atoms: _109  and  _111
REMARK   43  A    between atoms: _111  and  _112
REMARK   44  A    between atoms: _111  and  _114
REMARK   45  A    between atoms: _116  and  _118
REMARK   46  A    between atoms: _118  and  _119
REMARK   47  A    between atoms: _118  and  _121
REMARK   48  A    between atoms: _121  and  _122
REMARK   49  A    between atoms: _132  and  _134
REMARK   50  A    between atoms: _134  and  _135
REMARK   51  A    between atoms: _134  and  _137
REMARK   52  A    between atoms: _137  and  _138
REMARK   53  A    between atoms: _141  and  _143
REMARK   54  A    between atoms: _143  and  _144
REMARK   55  A    between atoms: _143  and  _146
REMARK   56  A    between atoms: _146  and  _147
REMARK   57  A    between atoms: _152  and  _153
REMARK   58  A    between atoms: _155  and  _157
REMARK   59  A    between atoms: _157  and  _158
REMARK   60  A    between atoms: _157  and  _160
REMARK   61  A    between atoms: _160  and  _161
REMARK   62  A    between atoms: _164  and  _166
REMARK   63  A    between atoms: _166  and  _167
REMARK   64  A    between atoms: _169  and  _171
REMARK   65  A    between atoms: _171  and  _172
REMARK   66  A    between atoms: _175  and  _177
REMARK   67  A    between atoms: _177  and  _178
REMARK   68  A    between atoms: _177  and  _180
REMARK   69  A    between atoms: _180  and  _181
REMARK   70  A    between atoms: _187  and  _189
REMARK   71  A    between atoms: _189  and  _190
REMARK   72  A    between atoms: _189  and  _192
REMARK   73  A    between atoms: _192  and  _193
REMARK   74  A    between atoms: _198  and  _200
REMARK   75  A    between atoms: _200  and  _201
REMARK   76  A    between atoms: _200  and  _203
REMARK   77  A    between atoms: _203  and  _204
REMARK   78  A    between atoms: _207  and  _209
REMARK   79  A    between atoms: _209  and  _210
REMARK   80  A    between atoms: _209  and  _212
REMARK   81  A    between atoms: _212  and  _213
REMARK   82  A    between atoms: _218  and  _220
REMARK   83  A    between atoms: _220  and  _221
REMARK   84  A    between atoms: _220  and  _223
REMARK   85  A    between atoms: _223  and  _224
REMARK   86  A    between atoms: _227  and  _229
REMARK   87  A    between atoms: _229  and  _230
REMARK   88  A    between atoms: _229  and  _232
REMARK   89  A    between atoms: _235  and  _237
REMARK   90  A    between atoms: _237  and  _238
REMARK   91  A    between atoms: _237  and  _240
REMARK   92  A    between atoms: _240  and  _241
REMARK   93  A    between atoms: _251  and  _253
REMARK   94  A    between atoms: _253  and  _254
REMARK   95  A    between atoms: _253  and  _256
REMARK   96  A    between atoms: _256  and  _257
REMARK   97  A    between atoms: _260  and  _262
REMARK   98  A    between atoms: _262  and  _263
REMARK   99  A    between atoms: _265  and  _267
REMARK  100  A    between atoms: _267  and  _268
REMARK  101  A    between atoms: _267  and  _270
REMARK  102  A    between atoms: _270  and  _271
REMARK  103  A    between atoms: _276  and  _278
REMARK  104  A    between atoms: _278  and  _279
REMARK  105  A    between atoms: _281  and  _283
REMARK  106  A    between atoms: _283  and  _284
REMARK  107  A    between atoms: _283  and  _286
REMARK  108  A    between atoms: _286  and  _287
REMARK                            x       y       z     vdW  Elec       q    Type
REMARK                         _______ _______ _______ _____ _____    ______ ____
ROOT
ATOM      1  O   HOH     1      -4.398  40.625  -7.716  0.00  0.00    +0.000 OA
ENDROOT
TORSDOF 0
REMARK  Name = ../refined-set-2016/2bt9/2bt9_pocket.pdb
REMARK  108 active torsions:
REMARK  status: ('A' for Active; 'I' for Inactive)
REMARK    1  A    between atoms: _1  and  _3
REMARK    2  A    between atoms: _3  and  _4
REMARK    3  A    between atoms: _3  and  _6
REMARK    4  A    between atoms: _6  and  _7
REMARK    5  A    between atoms: _10  and  _12
REMARK    6  A    between atoms: _12  and  _13
REMARK    7  A    between atoms: _12  and  _15
REMARK    8  A    between atoms: _15  and  _16
REMARK    9  A    between atoms: _26  and  _28
REMARK   10  A    between atoms: _28  and  _29
REMARK   11  A    between atoms: _28  and  _31
REMARK   12  A    between atoms: _31  and  _32
REMARK   13  A    between atoms: _34  and  _36
REMARK   14  A    between atoms: _36  and  _37
REMARK   15  A    between atoms: _36  and  _39
REMARK   16  A    between atoms: _39  and  _40
REMARK   17  A    between atoms: _43  and  _45
REMARK   18  A    between atoms: _45  and  _46
REMARK   19  A    between atoms: _45  and  _48
REMARK   20  A    between atoms: _48  and  _49
REMARK   21  A    between atoms: _49  and  _50
REMARK   22  A    between atoms: _50  and  _51
REMARK   23  A    between atoms: _60  and  _62
REMARK   24  A    between atoms: _62  and  _63
REMARK   25  A    between atoms: _62  and  _65
REMARK   26  A    between atoms: _68  and  _70
REMARK   27  A    between atoms: _70  and  _71
REMARK   28  A    between atoms: _70  and  _73
REMARK   29  A    between atoms: _73  and  _74
REMARK   30  A    between atoms: _79  and  _80
REMARK   31  A    between atoms: _82  and  _84
REMARK   32  A    between atoms: _84  and  _85
REMARK   33  A    between atoms: _84  and  _87
REMARK   34  A    between atoms: _87  and  _88
REMARK   35  A    between atoms: _88  and  _89
REMARK   36  A    between atoms: _92  and  _94
REMARK   37  A    between atoms: _94  and  _95
REMARK   38  A    between atoms: _94  and  _97
REMARK   39  A    between atoms: _97  and  _98
REMARK   40  A    between atoms: _98  and  _99
REMARK   41  A    between atoms: _99  and  _100
REMARK   42  A    between atoms: _109  and  _111
REMARK   43  A    between atoms: _111  and  _112
REMARK   44  A    between atoms: _111  and  _114
REMARK   45  A    between atoms: _116  and  _118
REMARK   46  A    between atoms: _118  and  _119
REMARK   47  A    between atoms: _118  and  _121
REMARK   48  A    between atoms: _121  and  _122
REMARK   49  A    between atoms: _132  and  _134
REMARK   50  A    between atoms: _134  and  _135
REMARK   51  A    between atoms: _134  and  _137
REMARK   52  A    between atoms: _137  and  _138
REMARK   53  A    between atoms: _141  and  _143
REMARK   54  A    between atoms: _143  and  _144
REMARK   55  A    between atoms: _143  and  _146
REMARK   56  A    between atoms: _146  and  _147
REMARK   57  A    between atoms: _152  and  _153
REMARK   58  A    between atoms: _155  and  _157
REMARK   59  A    between atoms: _157  and  _158
REMARK   60  A    between atoms: _157  and  _160
REMARK   61  A    between atoms: _160  and  _161
REMARK   62  A    between atoms: _164  and  _166
REMARK   63  A    between atoms: _166  and  _167
REMARK   64  A    between atoms: _169  and  _171
REMARK   65  A    between atoms: _171  and  _172
REMARK   66  A    between atoms: _175  and  _177
REMARK   67  A    between atoms: _177  and  _178
REMARK   68  A    between atoms: _177  and  _180
REMARK   69  A    between atoms: _180  and  _181
REMARK   70  A    between atoms: _187  and  _189
REMARK   71  A    between atoms: _189  and  _190
REMARK   72  A    between atoms: _189  and  _192
REMARK   73  A    between atoms: _192  and  _193
REMARK   74  A    between atoms: _198  and  _200
REMARK   75  A    between atoms: _200  and  _201
REMARK   76  A    between atoms: _200  and  _203
REMARK   77  A    between atoms: _203  and  _204
REMARK   78  A    between atoms: _207  and  _209
REMARK   79  A    between atoms: _209  and  _210
REMARK   80  A    between atoms: _209  and  _212
REMARK   81  A    between atoms: _212  and  _213
REMARK   82  A    between atoms: _218  and  _220
REMARK   83  A    between atoms: _220  and  _221
REMARK   84  A    between atoms: _220  and  _223
REMARK   85  A    between atoms: _223  and  _224
REMARK   86  A    between atoms: _227  and  _229
REMARK   87  A    between atoms: _229  and  _230
REMARK   88  A    between atoms: _229  and  _232
REMARK   89  A    between atoms: _235  and  _237
REMARK   90  A    between atoms: _237  and  _238
REMARK   91  A    between atoms: _237  and  _240
REMARK   92  A    between atoms: _240  and  _241
REMARK   93  A    between atoms: _251  and  _253
REMARK   94  A    between atoms: _253  and  _254
REMARK   95  A    between atoms: _253  and  _256
REMARK   96  A    between atoms: _256  and  _257
REMARK   97  A    between atoms: _260  and  _262
REMARK   98  A    between atoms: _262  and  _263
REMARK   99  A    between atoms: _265  and  _267
REMARK  100  A    between atoms: _267  and  _268
REMARK  101  A    between atoms: _267  and  _270
REMARK  102  A    between atoms: _270  and  _271
REMARK  103  A    between atoms: _276  and  _278
REMARK  104  A    between atoms: _278  and  _279
REMARK  105  A    between atoms: _281  and  _283
REMARK  106  A    between atoms: _283  and  _284
REMARK  107  A    between atoms: _283  and  _286
REMARK  108  A    between atoms: _286  and  _287
REMARK                            x       y       z     vdW  Elec       q    Type
REMARK                         _______ _______ _______ _____ _____    ______ ____
ROOT
ATOM      1  O   HOH     1      -6.516  42.728   1.603  0.00  0.00    +0.000 OA
ENDROOT
TORSDOF 0
