REMARK  Name = ../refined-set-2016/2fu8/2fu8_pocket.pdb
REMARK  113 active torsions:
REMARK  status: ('A' for Active; 'I' for Inactive)
REMARK    1  A    between atoms: _1  and  _3
REMARK    2  A    between atoms: _3  and  _4
REMARK    3  A    between atoms: _3  and  _6
REMARK    4  A    between atoms: _6  and  _7
REMARK    5  A    between atoms: _12  and  _13
REMARK    6  A    between atoms: _15  and  _17
REMARK    7  A    between atoms: _17  and  _18
REMARK    8  A    between atoms: _17  and  _20
REMARK    9  A    between atoms: _20  and  _21
REMARK   10  A    between atoms: _24  and  _26
REMARK   11  A    between atoms: _26  and  _27
REMARK   12  A    between atoms: _26  and  _29
REMARK   13  A    between atoms: _32  and  _34
REMARK   14  A    between atoms: _34  and  _35
REMARK   15  A    between atoms: _34  and  _37
REMARK   16  A    between atoms: _37  and  _38
REMARK   17  A    between atoms: _41  and  _43
REMARK   18  A    between atoms: _43  and  _44
REMARK   19  A    between atoms: _43  and  _46
REMARK   20  A    between atoms: _46  and  _47
REMARK   21  A    between atoms: _57  and  _59
REMARK   22  A    between atoms: _59  and  _60
REMARK   23  A    between atoms: _59  and  _62
REMARK   24  A    between atoms: _62  and  _63
REMARK   25  A    between atoms: _66  and  _68
REMARK   26  A    between atoms: _68  and  _69
REMARK   27  A    between atoms: _68  and  _71
REMARK   28  A    between atoms: _71  and  _72
REMARK   29  A    between atoms: _75  and  _77
REMARK   30  A    between atoms: _77  and  _78
REMARK   31  A    between atoms: _77  and  _80
REMARK   32  A    between atoms: _80  and  _81
REMARK   33  A    between atoms: _81  and  _82
REMARK   34  A    between atoms: _84  and  _86
REMARK   35  A    between atoms: _86  and  _87
REMARK   36  A    between atoms: _86  and  _89
REMARK   37  A    between atoms: _89  and  _90
REMARK   38  A    between atoms: _94  and  ZN_303
REMARK   39  A    between atoms: _95  and  _97
REMARK   40  A    between atoms: _97  and  _98
REMARK   41  A    between atoms: _97  and  _100
REMARK   42  A    between atoms: _100  and  _101
REMARK   43  A    between atoms: _102  and  ZN_303
REMARK   44  A    between atoms: _106  and  _108
REMARK   45  A    between atoms: _108  and  _109
REMARK   46  A    between atoms: _112  and  _114
REMARK   47  A    between atoms: _123  and  _124
REMARK   48  A    between atoms: _132  and  _134
REMARK   49  A    between atoms: _134  and  _135
REMARK   50  A    between atoms: _134  and  _137
REMARK   51  A    between atoms: _137  and  _138
REMARK   52  A    between atoms: _144  and  _146
REMARK   53  A    between atoms: _146  and  _147
REMARK   54  A    between atoms: _146  and  _149
REMARK   55  A    between atoms: _149  and  _150
REMARK   56  A    between atoms: _153  and  _155
REMARK   57  A    between atoms: _155  and  _156
REMARK   58  A    between atoms: _155  and  _158
REMARK   59  A    between atoms: _158  and  _159
REMARK   60  A    between atoms: _163  and  ZN_303
REMARK   61  A    between atoms: _164  and  _166
REMARK   62  A    between atoms: _166  and  _167
REMARK   63  A    between atoms: _166  and  _169
REMARK   64  A    between atoms: _169  and  _170
REMARK   65  A    between atoms: _173  and  _175
REMARK   66  A    between atoms: _175  and  _176
REMARK   67  A    between atoms: _175  and  _178
REMARK   68  A    between atoms: _178  and  _179
REMARK   69  A    between atoms: _182  and  _184
REMARK   70  A    between atoms: _184  and  _185
REMARK   71  A    between atoms: _184  and  _187
REMARK   72  A    between atoms: _187  and  _188
REMARK   73  A    between atoms: _190  and  _192
REMARK   74  A    between atoms: _192  and  _193
REMARK   75  A    between atoms: _192  and  _195
REMARK   76  A    between atoms: _195  and  _196
REMARK   77  A    between atoms: _199  and  _201
REMARK   78  A    between atoms: _201  and  _202
REMARK   79  A    between atoms: _201  and  _204
REMARK   80  A    between atoms: _204  and  _205
REMARK   81  A    between atoms: _207  and  _209
REMARK   82  A    between atoms: _209  and  _210
REMARK   83  A    between atoms: _214  and  _215
REMARK   84  A    between atoms: _220  and  _222
REMARK   85  A    between atoms: _222  and  _223
REMARK   86  A    between atoms: _225  and  _227
REMARK   87  A    between atoms: _227  and  _228
REMARK   88  A    between atoms: _227  and  _230
REMARK   89  A    between atoms: _230  and  _231
REMARK   90  A    between atoms: _236  and  _237
REMARK   91  A    between atoms: _239  and  _241
REMARK   92  A    between atoms: _241  and  _242
REMARK   93  A    between atoms: _241  and  _244
REMARK   94  A    between atoms: _244  and  _245
REMARK   95  A    between atoms: _250  and  _251
REMARK   96  A    between atoms: _254  and  _255
REMARK   97  A    between atoms: _260  and  _262
REMARK   98  A    between atoms: _262  and  _263
REMARK   99  A    between atoms: _262  and  _265
REMARK  100  A    between atoms: _265  and  _266
REMARK  101  A    between atoms: _270  and  ZN_304
REMARK  102  A    between atoms: _271  and  _273
REMARK  103  A    between atoms: _273  and  _274
REMARK  104  A    between atoms: _277  and  _279
REMARK  105  A    between atoms: _279  and  _280
REMARK  106  A    between atoms: _279  and  _282
REMARK  107  A    between atoms: _282  and  _283
REMARK  108  A    between atoms: _288  and  _289
REMARK  109  A    between atoms: _291  and  _293
REMARK  110  A    between atoms: _293  and  _294
REMARK  111  A    between atoms: _293  and  _296
REMARK  112  A    between atoms: _296  and  _297
REMARK  113  A    between atoms: _297  and  _298
REMARK                            x       y       z     vdW  Elec       q    Type
REMARK                         _______ _______ _______ _____ _____    ______ ____
ROOT
ATOM      1  CA  THR A   2       8.854  23.944  22.818  0.00  0.00    +0.176 C 
ENDROOT
BRANCH   1   3
ATOM      2  C   TYR A   1      10.754  25.361  22.202  0.00  0.00    +0.239 C 
ATOM      3  N   THR A   2      10.285  24.211  22.681  0.00  0.00    -0.295 N 
ATOM      4  H   THR A   2      10.961  23.475  22.968  0.00  0.00    +0.150 HD
ATOM      5  O   TYR A   1      10.024  26.275  21.787  0.00  0.00    -0.274 OA
BRANCH   2   6
ATOM      6  CA  TYR A   1      12.286  25.489  22.143  0.00  0.00    +0.149 C 
BRANCH   6   7
ATOM      7  N   TYR A   1      12.701  25.173  20.796  0.00  0.00    -0.238 NA
ATOM      8  H   TYR A   1      12.947  25.948  20.148  0.00  0.00    +0.142 HD
ENDBRANCH   6   7
BRANCH   6   9
ATOM      9  CB  TYR A   1      12.738  26.903  22.497  0.00  0.00    +0.053 C 
BRANCH   9  10
ATOM     10  CG  TYR A   1      12.330  27.338  23.883  0.00  0.00    -0.020 A 
ATOM     11  CD2 TYR A   1      12.460  26.491  24.980  0.00  0.00    -0.001 A 
ATOM     12  CE2 TYR A   1      12.083  26.904  26.256  0.00  0.00    +0.036 A 
ATOM     13  CZ  TYR A   1      11.572  28.182  26.423  0.00  0.00    +0.134 A 
ATOM     14  CE1 TYR A   1      11.439  29.021  25.356  0.00  0.00    +0.036 A 
ATOM     15  CD1 TYR A   1      11.817  28.615  24.098  0.00  0.00    -0.001 A 
BRANCH  13  16
ATOM     16  OH  TYR A   1      11.175  28.632  27.661  0.00  0.00    -0.506 OA
ATOM     17  HH  TYR A   1      11.329  27.922  28.334  0.00  0.00    +0.292 HD
ENDBRANCH  13  16
ENDBRANCH   9  10
ENDBRANCH   6   9
ENDBRANCH   2   6
ENDBRANCH   1   3
BRANCH   1  18
ATOM     18  C   THR A   2       8.425  24.130  24.256  0.00  0.00    +0.243 C 
ATOM     19  O   THR A   2       9.185  23.871  25.186  0.00  0.00    -0.273 OA
ATOM     20  N   VAL A   3       7.184  24.559  24.427  0.00  0.00    -0.297 N 
ATOM     21  H   VAL A   3       6.554  24.611  23.601  0.00  0.00    +0.150 HD
BRANCH  20  22
ATOM     22  CA  VAL A   3       6.670  24.960  25.729  0.00  0.00    +0.149 C 
BRANCH  22  23
ATOM     23  C   VAL A   3       5.271  24.385  25.938  0.00  0.00    +0.241 C 
ATOM     24  N   ASP A   4       4.780  24.443  27.170  0.00  0.00    -0.298 N 
ATOM     25  H   ASP A   4       5.400  24.754  27.945  0.00  0.00    +0.150 HD
ATOM     26  O   VAL A   3       4.633  23.974  24.999  0.00  0.00    -0.273 OA
BRANCH  24  27
ATOM     27  CA  ASP A   4       3.403  24.086  27.472  0.00  0.00    +0.148 C 
BRANCH  27  28
ATOM     28  C   ASP A   4       2.426  24.894  26.635  0.00  0.00    +0.227 C 
ATOM     29  O   ASP A   4       2.590  26.106  26.463  0.00  0.00    -0.286 OA
ENDBRANCH  27  28
BRANCH  27  30
ATOM     30  CB  ASP A   4       3.089  24.319  28.966  0.00  0.00    +0.142 C 
BRANCH  30  31
ATOM     31  CG  ASP A   4       3.876  23.411  29.898  0.00  0.00    +0.367 C 
ATOM     32  OD2 ASP A   4       3.876  23.604  31.126  0.00  0.00    -0.246 OA
ATOM     33  OD1 ASP A   4       4.496  22.417  29.448  0.00  0.00    -0.246 OA
ENDBRANCH  30  31
ENDBRANCH  27  30
ENDBRANCH  24  27
ENDBRANCH  22  23
BRANCH  22  34
ATOM     34  CB  VAL A   3       6.623  26.525  25.854  0.00  0.00    +0.027 C 
ATOM     35  CG2 VAL A   3       7.987  27.122  25.738  0.00  0.00    +0.002 C 
ATOM     36  CG1 VAL A   3       5.705  27.139  24.801  0.00  0.00    +0.002 C 
ENDBRANCH  22  34
ENDBRANCH  20  22
ENDBRANCH   1  18
BRANCH   1  37
ATOM     37  CB  THR A   2       8.497  22.502  22.385  0.00  0.00    +0.137 C 
ATOM     38  CG2 THR A   2       8.944  22.218  20.979  0.00  0.00    +0.034 C 
BRANCH  37  39
ATOM     39  OG1 THR A   2       9.229  21.570  23.181  0.00  0.00    -0.382 OA
ATOM     40  HG1 THR A   2      10.199  21.722  23.056  0.00  0.00    +0.210 HD
ENDBRANCH  37  39
ENDBRANCH   1  37
TORSDOF 16
REMARK  Name = ../refined-set-2016/2fu8/2fu8_pocket.pdb
REMARK  113 active torsions:
REMARK  status: ('A' for Active; 'I' for Inactive)
REMARK    1  A    between atoms: _1  and  _3
REMARK    2  A    between atoms: _3  and  _4
REMARK    3  A    between atoms: _3  and  _6
REMARK    4  A    between atoms: _6  and  _7
REMARK    5  A    between atoms: _12  and  _13
REMARK    6  A    between atoms: _15  and  _17
REMARK    7  A    between atoms: _17  and  _18
REMARK    8  A    between atoms: _17  and  _20
REMARK    9  A    between atoms: _20  and  _21
REMARK   10  A    between atoms: _24  and  _26
REMARK   11  A    between atoms: _26  and  _27
REMARK   12  A    between atoms: _26  and  _29
REMARK   13  A    between atoms: _32  and  _34
REMARK   14  A    between atoms: _34  and  _35
REMARK   15  A    between atoms: _34  and  _37
REMARK   16  A    between atoms: _37  and  _38
REMARK   17  A    between atoms: _41  and  _43
REMARK   18  A    between atoms: _43  and  _44
REMARK   19  A    between atoms: _43  and  _46
REMARK   20  A    between atoms: _46  and  _47
REMARK   21  A    between atoms: _57  and  _59
REMARK   22  A    between atoms: _59  and  _60
REMARK   23  A    between atoms: _59  and  _62
REMARK   24  A    between atoms: _62  and  _63
REMARK   25  A    between atoms: _66  and  _68
REMARK   26  A    between atoms: _68  and  _69
REMARK   27  A    between atoms: _68  and  _71
REMARK   28  A    between atoms: _71  and  _72
REMARK   29  A    between atoms: _75  and  _77
REMARK   30  A    between atoms: _77  and  _78
REMARK   31  A    between atoms: _77  and  _80
REMARK   32  A    between atoms: _80  and  _81
REMARK   33  A    between atoms: _81  and  _82
REMARK   34  A    between atoms: _84  and  _86
REMARK   35  A    between atoms: _86  and  _87
REMARK   36  A    between atoms: _86  and  _89
REMARK   37  A    between atoms: _89  and  _90
REMARK   38  A    between atoms: _94  and  ZN_303
REMARK   39  A    between atoms: _95  and  _97
REMARK   40  A    between atoms: _97  and  _98
REMARK   41  A    between atoms: _97  and  _100
REMARK   42  A    between atoms: _100  and  _101
REMARK   43  A    between atoms: _102  and  ZN_303
REMARK   44  A    between atoms: _106  and  _108
REMARK   45  A    between atoms: _108  and  _109
REMARK   46  A    between atoms: _112  and  _114
REMARK   47  A    between atoms: _123  and  _124
REMARK   48  A    between atoms: _132  and  _134
REMARK   49  A    between atoms: _134  and  _135
REMARK   50  A    between atoms: _134  and  _137
REMARK   51  A    between atoms: _137  and  _138
REMARK   52  A    between atoms: _144  and  _146
REMARK   53  A    between atoms: _146  and  _147
REMARK   54  A    between atoms: _146  and  _149
REMARK   55  A    between atoms: _149  and  _150
REMARK   56  A    between atoms: _153  and  _155
REMARK   57  A    between atoms: _155  and  _156
REMARK   58  A    between atoms: _155  and  _158
REMARK   59  A    between atoms: _158  and  _159
REMARK   60  A    between atoms: _163  and  ZN_303
REMARK   61  A    between atoms: _164  and  _166
REMARK   62  A    between atoms: _166  and  _167
REMARK   63  A    between atoms: _166  and  _169
REMARK   64  A    between atoms: _169  and  _170
REMARK   65  A    between atoms: _173  and  _175
REMARK   66  A    between atoms: _175  and  _176
REMARK   67  A    between atoms: _175  and  _178
REMARK   68  A    between atoms: _178  and  _179
REMARK   69  A    between atoms: _182  and  _184
REMARK   70  A    between atoms: _184  and  _185
REMARK   71  A    between atoms: _184  and  _187
REMARK   72  A    between atoms: _187  and  _188
REMARK   73  A    between atoms: _190  and  _192
REMARK   74  A    between atoms: _192  and  _193
REMARK   75  A    between atoms: _192  and  _195
REMARK   76  A    between atoms: _195  and  _196
REMARK   77  A    between atoms: _199  and  _201
REMARK   78  A    between atoms: _201  and  _202
REMARK   79  A    between atoms: _201  and  _204
REMARK   80  A    between atoms: _204  and  _205
REMARK   81  A    between atoms: _207  and  _209
REMARK   82  A    between atoms: _209  and  _210
REMARK   83  A    between atoms: _214  and  _215
REMARK   84  A    between atoms: _220  and  _222
REMARK   85  A    between atoms: _222  and  _223
REMARK   86  A    between atoms: _225  and  _227
REMARK   87  A    between atoms: _227  and  _228
REMARK   88  A    between atoms: _227  and  _230
REMARK   89  A    between atoms: _230  and  _231
REMARK   90  A    between atoms: _236  and  _237
REMARK   91  A    between atoms: _239  and  _241
REMARK   92  A    between atoms: _241  and  _242
REMARK   93  A    between atoms: _241  and  _244
REMARK   94  A    between atoms: _244  and  _245
REMARK   95  A    between atoms: _250  and  _251
REMARK   96  A    between atoms: _254  and  _255
REMARK   97  A    between atoms: _260  and  _262
REMARK   98  A    between atoms: _262  and  _263
REMARK   99  A    between atoms: _262  and  _265
REMARK  100  A    between atoms: _265  and  _266
REMARK  101  A    between atoms: _270  and  ZN_304
REMARK  102  A    between atoms: _271  and  _273
REMARK  103  A    between atoms: _273  and  _274
REMARK  104  A    between atoms: _277  and  _279
REMARK  105  A    between atoms: _279  and  _280
REMARK  106  A    between atoms: _279  and  _282
REMARK  107  A    between atoms: _282  and  _283
REMARK  108  A    between atoms: _288  and  _289
REMARK  109  A    between atoms: _291  and  _293
REMARK  110  A    between atoms: _293  and  _294
REMARK  111  A    between atoms: _293  and  _296
REMARK  112  A    between atoms: _296  and  _297
REMARK  113  A    between atoms: _297  and  _298
REMARK                            x       y       z     vdW  Elec       q    Type
REMARK                         _______ _______ _______ _____ _____    ______ ____
ROOT
ATOM      1  CG  TRP A   1       4.166  28.556  28.721  0.00  0.00    -0.002 A 
ATOM      2  CD1 TRP A   1       3.481  28.009  29.784  0.00  0.00    +0.068 A 
ATOM      3  NE1 TRP A   1       4.357  27.659  30.778  0.00  0.00    -0.352 N 
ATOM      4  HE1 TRP A   1       4.097  27.234  31.691  0.00  0.00    +0.166 HD
ATOM      5  CE2 TRP A   1       5.629  27.960  30.374  0.00  0.00    +0.056 A 
ATOM      6  CZ2 TRP A   1       6.847  27.790  31.032  0.00  0.00    +0.017 A 
ATOM      7  CH2 TRP A   1       7.990  28.181  30.362  0.00  0.00    +0.001 A 
ATOM      8  CZ3 TRP A   1       7.938  28.719  29.092  0.00  0.00    +0.000 A 
ATOM      9  CE3 TRP A   1       6.721  28.904  28.433  0.00  0.00    +0.001 A 
ATOM     10  CD2 TRP A   1       5.540  28.521  29.081  0.00  0.00    +0.013 A 
ENDROOT
BRANCH   1  11
ATOM     11  CB  TRP A   1       3.622  29.045  27.423  0.00  0.00    +0.053 C 
BRANCH  11  12
ATOM     12  CA  TRP A   1       2.167  29.529  27.410  0.00  0.00    +0.137 C 
BRANCH  12  13
ATOM     13  N   TRP A   1       1.245  28.416  27.677  0.00  0.00    -0.239 NA
ATOM     14  H   TRP A   1       1.620  27.448  27.743  0.00  0.00    +0.142 HD
ENDBRANCH  12  13
BRANCH  12  15
ATOM     15  C   TRP A   1       1.904  30.186  26.048  0.00  0.00    +0.224 C 
ATOM     16  O   TRP A   1       2.260  31.351  25.812  0.00  0.00    -0.287 OA
ENDBRANCH  12  15
ENDBRANCH  11  12
ENDBRANCH   1  11
TORSDOF 4
REMARK  Name = ../refined-set-2016/2fu8/2fu8_pocket.pdb
REMARK  113 active torsions:
REMARK  status: ('A' for Active; 'I' for Inactive)
REMARK    1  A    between atoms: _1  and  _3
REMARK    2  A    between atoms: _3  and  _4
REMARK    3  A    between atoms: _3  and  _6
REMARK    4  A    between atoms: _6  and  _7
REMARK    5  A    between atoms: _12  and  _13
REMARK    6  A    between atoms: _15  and  _17
REMARK    7  A    between atoms: _17  and  _18
REMARK    8  A    between atoms: _17  and  _20
REMARK    9  A    between atoms: _20  and  _21
REMARK   10  A    between atoms: _24  and  _26
REMARK   11  A    between atoms: _26  and  _27
REMARK   12  A    between atoms: _26  and  _29
REMARK   13  A    between atoms: _32  and  _34
REMARK   14  A    between atoms: _34  and  _35
REMARK   15  A    between atoms: _34  and  _37
REMARK   16  A    between atoms: _37  and  _38
REMARK   17  A    between atoms: _41  and  _43
REMARK   18  A    between atoms: _43  and  _44
REMARK   19  A    between atoms: _43  and  _46
REMARK   20  A    between atoms: _46  and  _47
REMARK   21  A    between atoms: _57  and  _59
REMARK   22  A    between atoms: _59  and  _60
REMARK   23  A    between atoms: _59  and  _62
REMARK   24  A    between atoms: _62  and  _63
REMARK   25  A    between atoms: _66  and  _68
REMARK   26  A    between atoms: _68  and  _69
REMARK   27  A    between atoms: _68  and  _71
REMARK   28  A    between atoms: _71  and  _72
REMARK   29  A    between atoms: _75  and  _77
REMARK   30  A    between atoms: _77  and  _78
REMARK   31  A    between atoms: _77  and  _80
REMARK   32  A    between atoms: _80  and  _81
REMARK   33  A    between atoms: _81  and  _82
REMARK   34  A    between atoms: _84  and  _86
REMARK   35  A    between atoms: _86  and  _87
REMARK   36  A    between atoms: _86  and  _89
REMARK   37  A    between atoms: _89  and  _90
REMARK   38  A    between atoms: _94  and  ZN_303
REMARK   39  A    between atoms: _95  and  _97
REMARK   40  A    between atoms: _97  and  _98
REMARK   41  A    between atoms: _97  and  _100
REMARK   42  A    between atoms: _100  and  _101
REMARK   43  A    between atoms: _102  and  ZN_303
REMARK   44  A    between atoms: _106  and  _108
REMARK   45  A    between atoms: _108  and  _109
REMARK   46  A    between atoms: _112  and  _114
REMARK   47  A    between atoms: _123  and  _124
REMARK   48  A    between atoms: _132  and  _134
REMARK   49  A    between atoms: _134  and  _135
REMARK   50  A    between atoms: _134  and  _137
REMARK   51  A    between atoms: _137  and  _138
REMARK   52  A    between atoms: _144  and  _146
REMARK   53  A    between atoms: _146  and  _147
REMARK   54  A    between atoms: _146  and  _149
REMARK   55  A    between atoms: _149  and  _150
REMARK   56  A    between atoms: _153  and  _155
REMARK   57  A    between atoms: _155  and  _156
REMARK   58  A    between atoms: _155  and  _158
REMARK   59  A    between atoms: _158  and  _159
REMARK   60  A    between atoms: _163  and  ZN_303
REMARK   61  A    between atoms: _164  and  _166
REMARK   62  A    between atoms: _166  and  _167
REMARK   63  A    between atoms: _166  and  _169
REMARK   64  A    between atoms: _169  and  _170
REMARK   65  A    between atoms: _173  and  _175
REMARK   66  A    between atoms: _175  and  _176
REMARK   67  A    between atoms: _175  and  _178
REMARK   68  A    between atoms: _178  and  _179
REMARK   69  A    between atoms: _182  and  _184
REMARK   70  A    between atoms: _184  and  _185
REMARK   71  A    between atoms: _184  and  _187
REMARK   72  A    between atoms: _187  and  _188
REMARK   73  A    between atoms: _190  and  _192
REMARK   74  A    between atoms: _192  and  _193
REMARK   75  A    between atoms: _192  and  _195
REMARK   76  A    between atoms: _195  and  _196
REMARK   77  A    between atoms: _199  and  _201
REMARK   78  A    between atoms: _201  and  _202
REMARK   79  A    between atoms: _201  and  _204
REMARK   80  A    between atoms: _204  and  _205
REMARK   81  A    between atoms: _207  and  _209
REMARK   82  A    between atoms: _209  and  _210
REMARK   83  A    between atoms: _214  and  _215
REMARK   84  A    between atoms: _220  and  _222
REMARK   85  A    between atoms: _222  and  _223
REMARK   86  A    between atoms: _225  and  _227
REMARK   87  A    between atoms: _227  and  _228
REMARK   88  A    between atoms: _227  and  _230
REMARK   89  A    between atoms: _230  and  _231
REMARK   90  A    between atoms: _236  and  _237
REMARK   91  A    between atoms: _239  and  _241
REMARK   92  A    between atoms: _241  and  _242
REMARK   93  A    between atoms: _241  and  _244
REMARK   94  A    between atoms: _244  and  _245
REMARK   95  A    between atoms: _250  and  _251
REMARK   96  A    between atoms: _254  and  _255
REMARK   97  A    between atoms: _260  and  _262
REMARK   98  A    between atoms: _262  and  _263
REMARK   99  A    between atoms: _262  and  _265
REMARK  100  A    between atoms: _265  and  _266
REMARK  101  A    between atoms: _270  and  ZN_304
REMARK  102  A    between atoms: _271  and  _273
REMARK  103  A    between atoms: _273  and  _274
REMARK  104  A    between atoms: _277  and  _279
REMARK  105  A    between atoms: _279  and  _280
REMARK  106  A    between atoms: _279  and  _282
REMARK  107  A    between atoms: _282  and  _283
REMARK  108  A    between atoms: _288  and  _289
REMARK  109  A    between atoms: _291  and  _293
REMARK  110  A    between atoms: _293  and  _294
REMARK  111  A    between atoms: _293  and  _296
REMARK  112  A    between atoms: _296  and  _297
REMARK  113  A    between atoms: _297  and  _298
REMARK                            x       y       z     vdW  Elec       q    Type
REMARK                         _______ _______ _______ _____ _____    ______ ____
ROOT
ATOM      1  C   ASP A   1       2.045  32.469  30.718  0.00  0.00    +0.239 C 
ATOM      2  O   ASP A   1       3.067  32.089  31.270  0.00  0.00    -0.274 OA
ATOM      3  N   LEU A   2       1.997  33.528  29.905  0.00  0.00    -0.298 N 
ATOM      4  H   LEU A   2       1.127  33.712  29.366  0.00  0.00    +0.150 HD
ENDROOT
BRANCH   1   5
ATOM      5  CA  ASP A   1       0.747  31.734  30.998  0.00  0.00    +0.156 C 
BRANCH   5   6
ATOM      6  N   ASP A   1      -0.369  32.016  30.098  0.00  0.00    -0.238 NA
ATOM      7  H   ASP A   1      -0.262  31.856  29.076  0.00  0.00    +0.142 HD
ENDBRANCH   5   6
BRANCH   5   8
ATOM      8  CB  ASP A   1       1.009  30.222  31.050  0.00  0.00    +0.140 C 
BRANCH   8   9
ATOM      9  CG  ASP A   1       0.391  29.562  32.263  0.00  0.00    +0.367 C 
ATOM     10  OD2 ASP A   1       0.233  30.229  33.322  0.00  0.00    -0.246 OA
ATOM     11  OD1 ASP A   1       0.085  28.354  32.253  0.00  0.00    -0.246 OA
ENDBRANCH   8   9
ENDBRANCH   5   8
ENDBRANCH   1   5
BRANCH   3  12
ATOM     12  CA  LEU A   2       3.130  34.434  29.751  0.00  0.00    +0.137 C 
BRANCH  12  13
ATOM     13  C   LEU A   2       2.649  35.880  29.791  0.00  0.00    +0.227 C 
ATOM     14  O   LEU A   2       1.745  36.289  29.053  0.00  0.00    -0.286 OA
ENDBRANCH  12  13
BRANCH  12  15
ATOM     15  CB  LEU A   2       3.930  34.177  28.468  0.00  0.00    +0.028 C 
BRANCH  15  16
ATOM     16  CG  LEU A   2       4.718  32.875  28.375  0.00  0.00    +0.002 C 
ATOM     17  CD2 LEU A   2       5.880  32.926  29.365  0.00  0.00    +0.000 C 
ATOM     18  CD1 LEU A   2       5.241  32.680  26.979  0.00  0.00    +0.000 C 
ENDBRANCH  15  16
ENDBRANCH  12  15
ENDBRANCH   3  12
TORSDOF 8
REMARK  Name = ../refined-set-2016/2fu8/2fu8_pocket.pdb
REMARK  113 active torsions:
REMARK  status: ('A' for Active; 'I' for Inactive)
REMARK    1  A    between atoms: _1  and  _3
REMARK    2  A    between atoms: _3  and  _4
REMARK    3  A    between atoms: _3  and  _6
REMARK    4  A    between atoms: _6  and  _7
REMARK    5  A    between atoms: _12  and  _13
REMARK    6  A    between atoms: _15  and  _17
REMARK    7  A    between atoms: _17  and  _18
REMARK    8  A    between atoms: _17  and  _20
REMARK    9  A    between atoms: _20  and  _21
REMARK   10  A    between atoms: _24  and  _26
REMARK   11  A    between atoms: _26  and  _27
REMARK   12  A    between atoms: _26  and  _29
REMARK   13  A    between atoms: _32  and  _34
REMARK   14  A    between atoms: _34  and  _35
REMARK   15  A    between atoms: _34  and  _37
REMARK   16  A    between atoms: _37  and  _38
REMARK   17  A    between atoms: _41  and  _43
REMARK   18  A    between atoms: _43  and  _44
REMARK   19  A    between atoms: _43  and  _46
REMARK   20  A    between atoms: _46  and  _47
REMARK   21  A    between atoms: _57  and  _59
REMARK   22  A    between atoms: _59  and  _60
REMARK   23  A    between atoms: _59  and  _62
REMARK   24  A    between atoms: _62  and  _63
REMARK   25  A    between atoms: _66  and  _68
REMARK   26  A    between atoms: _68  and  _69
REMARK   27  A    between atoms: _68  and  _71
REMARK   28  A    between atoms: _71  and  _72
REMARK   29  A    between atoms: _75  and  _77
REMARK   30  A    between atoms: _77  and  _78
REMARK   31  A    between atoms: _77  and  _80
REMARK   32  A    between atoms: _80  and  _81
REMARK   33  A    between atoms: _81  and  _82
REMARK   34  A    between atoms: _84  and  _86
REMARK   35  A    between atoms: _86  and  _87
REMARK   36  A    between atoms: _86  and  _89
REMARK   37  A    between atoms: _89  and  _90
REMARK   38  A    between atoms: _94  and  ZN_303
REMARK   39  A    between atoms: _95  and  _97
REMARK   40  A    between atoms: _97  and  _98
REMARK   41  A    between atoms: _97  and  _100
REMARK   42  A    between atoms: _100  and  _101
REMARK   43  A    between atoms: _102  and  ZN_303
REMARK   44  A    between atoms: _106  and  _108
REMARK   45  A    between atoms: _108  and  _109
REMARK   46  A    between atoms: _112  and  _114
REMARK   47  A    between atoms: _123  and  _124
REMARK   48  A    between atoms: _132  and  _134
REMARK   49  A    between atoms: _134  and  _135
REMARK   50  A    between atoms: _134  and  _137
REMARK   51  A    between atoms: _137  and  _138
REMARK   52  A    between atoms: _144  and  _146
REMARK   53  A    between atoms: _146  and  _147
REMARK   54  A    between atoms: _146  and  _149
REMARK   55  A    between atoms: _149  and  _150
REMARK   56  A    between atoms: _153  and  _155
REMARK   57  A    between atoms: _155  and  _156
REMARK   58  A    between atoms: _155  and  _158
REMARK   59  A    between atoms: _158  and  _159
REMARK   60  A    between atoms: _163  and  ZN_303
REMARK   61  A    between atoms: _164  and  _166
REMARK   62  A    between atoms: _166  and  _167
REMARK   63  A    between atoms: _166  and  _169
REMARK   64  A    between atoms: _169  and  _170
REMARK   65  A    between atoms: _173  and  _175
REMARK   66  A    between atoms: _175  and  _176
REMARK   67  A    between atoms: _175  and  _178
REMARK   68  A    between atoms: _178  and  _179
REMARK   69  A    between atoms: _182  and  _184
REMARK   70  A    between atoms: _184  and  _185
REMARK   71  A    between atoms: _184  and  _187
REMARK   72  A    between atoms: _187  and  _188
REMARK   73  A    between atoms: _190  and  _192
REMARK   74  A    between atoms: _192  and  _193
REMARK   75  A    between atoms: _192  and  _195
REMARK   76  A    between atoms: _195  and  _196
REMARK   77  A    between atoms: _199  and  _201
REMARK   78  A    between atoms: _201  and  _202
REMARK   79  A    between atoms: _201  and  _204
REMARK   80  A    between atoms: _204  and  _205
REMARK   81  A    between atoms: _207  and  _209
REMARK   82  A    between atoms: _209  and  _210
REMARK   83  A    between atoms: _214  and  _215
REMARK   84  A    between atoms: _220  and  _222
REMARK   85  A    between atoms: _222  and  _223
REMARK   86  A    between atoms: _225  and  _227
REMARK   87  A    between atoms: _227  and  _228
REMARK   88  A    between atoms: _227  and  _230
REMARK   89  A    between atoms: _230  and  _231
REMARK   90  A    between atoms: _236  and  _237
REMARK   91  A    between atoms: _239  and  _241
REMARK   92  A    between atoms: _241  and  _242
REMARK   93  A    between atoms: _241  and  _244
REMARK   94  A    between atoms: _244  and  _245
REMARK   95  A    between atoms: _250  and  _251
REMARK   96  A    between atoms: _254  and  _255
REMARK   97  A    between atoms: _260  and  _262
REMARK   98  A    between atoms: _262  and  _263
REMARK   99  A    between atoms: _262  and  _265
REMARK  100  A    between atoms: _265  and  _266
REMARK  101  A    between atoms: _270  and  ZN_304
REMARK  102  A    between atoms: _271  and  _273
REMARK  103  A    between atoms: _273  and  _274
REMARK  104  A    between atoms: _277  and  _279
REMARK  105  A    between atoms: _279  and  _280
REMARK  106  A    between atoms: _279  and  _282
REMARK  107  A    between atoms: _282  and  _283
REMARK  108  A    between atoms: _288  and  _289
REMARK  109  A    between atoms: _291  and  _293
REMARK  110  A    between atoms: _293  and  _294
REMARK  111  A    between atoms: _293  and  _296
REMARK  112  A    between atoms: _296  and  _297
REMARK  113  A    between atoms: _297  and  _298
REMARK                            x       y       z     vdW  Elec       q    Type
REMARK                         _______ _______ _______ _____ _____    ______ ____
ROOT
ATOM      1  CA  MET A   1       7.508  33.887  22.987  0.00  0.00    +0.134 C 
ENDROOT
BRANCH   1   2
ATOM      2  N   MET A   1       6.825  34.758  23.926  0.00  0.00    -0.239 NA
ATOM      3  H   MET A   1       5.817  34.587  24.115  0.00  0.00    +0.142 HD
ENDBRANCH   1   2
BRANCH   1   4
ATOM      4  C   MET A   1       7.599  34.548  21.630  0.00  0.00    +0.224 C 
ATOM      5  O   MET A   1       6.821  35.443  21.263  0.00  0.00    -0.287 OA
ENDBRANCH   1   4
BRANCH   1   6
ATOM      6  CB  MET A   1       6.757  32.549  22.857  0.00  0.00    +0.037 C 
BRANCH   6   7
ATOM      7  CG  MET A   1       6.949  31.654  24.065  0.00  0.00    +0.059 C 
BRANCH   7   8
ATOM      8  SD  MET A   1       8.563  30.812  24.121  0.00  0.00    -0.139 S 
ATOM      9  CE  MET A   1       8.273  29.546  22.851  0.00  0.00    +0.069 C 
ENDBRANCH   7   8
ENDBRANCH   6   7
ENDBRANCH   1   6
TORSDOF 5
REMARK  Name = ../refined-set-2016/2fu8/2fu8_pocket.pdb
REMARK  113 active torsions:
REMARK  status: ('A' for Active; 'I' for Inactive)
REMARK    1  A    between atoms: _1  and  _3
REMARK    2  A    between atoms: _3  and  _4
REMARK    3  A    between atoms: _3  and  _6
REMARK    4  A    between atoms: _6  and  _7
REMARK    5  A    between atoms: _12  and  _13
REMARK    6  A    between atoms: _15  and  _17
REMARK    7  A    between atoms: _17  and  _18
REMARK    8  A    between atoms: _17  and  _20
REMARK    9  A    between atoms: _20  and  _21
REMARK   10  A    between atoms: _24  and  _26
REMARK   11  A    between atoms: _26  and  _27
REMARK   12  A    between atoms: _26  and  _29
REMARK   13  A    between atoms: _32  and  _34
REMARK   14  A    between atoms: _34  and  _35
REMARK   15  A    between atoms: _34  and  _37
REMARK   16  A    between atoms: _37  and  _38
REMARK   17  A    between atoms: _41  and  _43
REMARK   18  A    between atoms: _43  and  _44
REMARK   19  A    between atoms: _43  and  _46
REMARK   20  A    between atoms: _46  and  _47
REMARK   21  A    between atoms: _57  and  _59
REMARK   22  A    between atoms: _59  and  _60
REMARK   23  A    between atoms: _59  and  _62
REMARK   24  A    between atoms: _62  and  _63
REMARK   25  A    between atoms: _66  and  _68
REMARK   26  A    between atoms: _68  and  _69
REMARK   27  A    between atoms: _68  and  _71
REMARK   28  A    between atoms: _71  and  _72
REMARK   29  A    between atoms: _75  and  _77
REMARK   30  A    between atoms: _77  and  _78
REMARK   31  A    between atoms: _77  and  _80
REMARK   32  A    between atoms: _80  and  _81
REMARK   33  A    between atoms: _81  and  _82
REMARK   34  A    between atoms: _84  and  _86
REMARK   35  A    between atoms: _86  and  _87
REMARK   36  A    between atoms: _86  and  _89
REMARK   37  A    between atoms: _89  and  _90
REMARK   38  A    between atoms: _94  and  ZN_303
REMARK   39  A    between atoms: _95  and  _97
REMARK   40  A    between atoms: _97  and  _98
REMARK   41  A    between atoms: _97  and  _100
REMARK   42  A    between atoms: _100  and  _101
REMARK   43  A    between atoms: _102  and  ZN_303
REMARK   44  A    between atoms: _106  and  _108
REMARK   45  A    between atoms: _108  and  _109
REMARK   46  A    between atoms: _112  and  _114
REMARK   47  A    between atoms: _123  and  _124
REMARK   48  A    between atoms: _132  and  _134
REMARK   49  A    between atoms: _134  and  _135
REMARK   50  A    between atoms: _134  and  _137
REMARK   51  A    between atoms: _137  and  _138
REMARK   52  A    between atoms: _144  and  _146
REMARK   53  A    between atoms: _146  and  _147
REMARK   54  A    between atoms: _146  and  _149
REMARK   55  A    between atoms: _149  and  _150
REMARK   56  A    between atoms: _153  and  _155
REMARK   57  A    between atoms: _155  and  _156
REMARK   58  A    between atoms: _155  and  _158
REMARK   59  A    between atoms: _158  and  _159
REMARK   60  A    between atoms: _163  and  ZN_303
REMARK   61  A    between atoms: _164  and  _166
REMARK   62  A    between atoms: _166  and  _167
REMARK   63  A    between atoms: _166  and  _169
REMARK   64  A    between atoms: _169  and  _170
REMARK   65  A    between atoms: _173  and  _175
REMARK   66  A    between atoms: _175  and  _176
REMARK   67  A    between atoms: _175  and  _178
REMARK   68  A    between atoms: _178  and  _179
REMARK   69  A    between atoms: _182  and  _184
REMARK   70  A    between atoms: _184  and  _185
REMARK   71  A    between atoms: _184  and  _187
REMARK   72  A    between atoms: _187  and  _188
REMARK   73  A    between atoms: _190  and  _192
REMARK   74  A    between atoms: _192  and  _193
REMARK   75  A    between atoms: _192  and  _195
REMARK   76  A    between atoms: _195  and  _196
REMARK   77  A    between atoms: _199  and  _201
REMARK   78  A    between atoms: _201  and  _202
REMARK   79  A    between atoms: _201  and  _204
REMARK   80  A    between atoms: _204  and  _205
REMARK   81  A    between atoms: _207  and  _209
REMARK   82  A    between atoms: _209  and  _210
REMARK   83  A    between atoms: _214  and  _215
REMARK   84  A    between atoms: _220  and  _222
REMARK   85  A    between atoms: _222  and  _223
REMARK   86  A    between atoms: _225  and  _227
REMARK   87  A    between atoms: _227  and  _228
REMARK   88  A    between atoms: _227  and  _230
REMARK   89  A    between atoms: _230  and  _231
REMARK   90  A    between atoms: _236  and  _237
REMARK   91  A    between atoms: _239  and  _241
REMARK   92  A    between atoms: _241  and  _242
REMARK   93  A    between atoms: _241  and  _244
REMARK   94  A    between atoms: _244  and  _245
REMARK   95  A    between atoms: _250  and  _251
REMARK   96  A    between atoms: _254  and  _255
REMARK   97  A    between atoms: _260  and  _262
REMARK   98  A    between atoms: _262  and  _263
REMARK   99  A    between atoms: _262  and  _265
REMARK  100  A    between atoms: _265  and  _266
REMARK  101  A    between atoms: _270  and  ZN_304
REMARK  102  A    between atoms: _271  and  _273
REMARK  103  A    between atoms: _273  and  _274
REMARK  104  A    between atoms: _277  and  _279
REMARK  105  A    between atoms: _279  and  _280
REMARK  106  A    between atoms: _279  and  _282
REMARK  107  A    between atoms: _282  and  _283
REMARK  108  A    between atoms: _288  and  _289
REMARK  109  A    between atoms: _291  and  _293
REMARK  110  A    between atoms: _293  and  _294
REMARK  111  A    between atoms: _293  and  _296
REMARK  112  A    between atoms: _296  and  _297
REMARK  113  A    between atoms: _297  and  _298
REMARK                            x       y       z     vdW  Elec       q    Type
REMARK                         _______ _______ _______ _____ _____    ______ ____
ROOT
ATOM      1  C   UNK A   1      14.140  34.855  26.466  0.00  0.00    +0.000 C 
ATOM      2  O   UNK A   1      13.286  35.735  26.367  0.00  0.00    +0.000 OA
ATOM      3  N   UNK A   2      14.177  33.781  25.674  0.00  0.00    +0.000 N 
ATOM      4  H   UNK A   2      14.863  33.032  25.896  0.00  0.00    +0.000 HD
ENDROOT
BRANCH   3   5
ATOM      5  C   UNK A   2      13.307  33.596  24.510  0.00  0.00    +0.000 C 
ATOM      6  C   UNK A   2      13.620  32.263  23.798  0.00  0.00    +0.000 C 
BRANCH   5   7
ATOM      7  C   UNK A   2      11.816  33.660  24.805  0.00  0.00    +0.000 C 
ATOM      8  N   UNK A   3      11.430  33.246  26.000  0.00  0.00    +0.000 N 
ATOM      9  H   UNK A   3      12.153  32.921  26.674  0.00  0.00    +0.000 HD
ATOM     10  O   UNK A   2      11.040  34.021  23.944  0.00  0.00    +0.000 OA
BRANCH   8  11
ATOM     11  C   UNK A   3      10.023  33.227  26.412  0.00  0.00    +0.000 C 
ATOM     12  C   UNK A   3       9.734  32.040  27.358  0.00  0.00    +0.000 C 
ATOM     13  C   UNK A   3      10.561  32.050  28.623  0.00  0.00    +0.000 C 
ATOM     14  O   UNK A   3      10.106  31.572  29.663  0.00  0.00    +0.000 OA
ATOM     15 ZN   UNK A   3      10.629  32.387  31.381  0.00  0.00    +0.000 Zn
ATOM     16  N   UNK A   3      10.227  34.392  31.061  0.00  0.00    +0.000 N 
ATOM     17  C   UNK A   3       8.995  34.863  31.025  0.00  0.00    +0.000 A 
ATOM     18  N   UNK A   3       8.982  35.941  30.269  0.00  0.00    +0.000 NA
ATOM     19  C   UNK A   3      10.246  36.163  29.771  0.00  0.00    +0.000 A 
ATOM     20  C   UNK A   3      10.535  37.255  28.794  0.00  0.00    +0.000 C 
ATOM     21  C   UNK A   3       9.972  36.946  27.413  0.00  0.00    +0.000 C 
ATOM     22  N   UNK A   3      10.392  35.587  27.011  0.00  0.00    +0.000 N 
ATOM     23  H   ACE A   4      11.380  35.428  26.728  0.00  0.00    +0.000 HD
ATOM     24  C   UNK A   3      11.031  35.188  30.282  0.00  0.00    +0.000 A 
ATOM     25  O   UNK A   3      11.700  32.566  28.656  0.00  0.00    +0.000 OA
ATOM     26  C   UNK A   3       9.537  34.550  27.000  0.00  0.00    +0.000 C 
ATOM     27  O   UNK A   3       8.380  34.632  27.390  0.00  0.00    +0.000 OA
BRANCH  15  28
ATOM     28  N   UNK A   3       8.903  31.895  32.455  0.00  0.00    +0.000 N 
ATOM     29  C   UNK A   3       8.515  32.446  33.660  0.00  0.00    +0.000 A 
ATOM     30  C   UNK A   3       7.214  32.103  33.852  0.00  0.00    +0.000 A 
ATOM     31  N   UNK A   3       6.841  31.377  32.741  0.00  0.00    +0.000 NA
ATOM     32  C   UNK A   3       7.865  31.300  31.906  0.00  0.00    +0.000 A 
BRANCH  30  33
ATOM     33  C   UNK A   3       6.242  32.460  34.927  0.00  0.00    +0.000 C 
BRANCH  33  34
ATOM     34  C   UNK A   3       5.403  33.692  34.575  0.00  0.00    +0.000 C 
BRANCH  34  35
ATOM     35  N   UNK A   3       6.253  34.880  34.476  0.00  0.00    +0.000 N 
ATOM     36  H   UNK A   3       7.048  34.975  35.140  0.00  0.00    +0.000 HD
ATOM     37  C   UNK A   1       6.062  35.835  33.588  0.00  0.00    +0.000 C 
ATOM     38  O   UNK A   1       5.309  35.700  32.641  0.00  0.00    +0.000 OA
BRANCH  37  39
ATOM     39  C   UNK A   1       6.818  37.159  33.804  0.00  0.00    +0.000 C 
ATOM     40  N   UNK A   1       6.795  37.632  35.206  0.00  0.00    +0.000 NA
ATOM     41  C   UNK A   1       8.155  37.951  35.696  0.00  0.00    +0.000 C 
ATOM     42  C   UNK A   1       8.971  38.021  34.417  0.00  0.00    +0.000 C 
ATOM     43  C   UNK A   1       8.320  37.056  33.489  0.00  0.00    +0.000 C 
ENDBRANCH  37  39
ENDBRANCH  34  35
BRANCH  34  44
ATOM     44  C   UNK A   3       4.363  33.992  35.668  0.00  0.00    +0.000 C 
ATOM     45  O   UNK A   2       4.712  34.116  36.833  0.00  0.00    +0.000 OA
ENDBRANCH  34  44
ENDBRANCH  33  34
ENDBRANCH  30  33
ENDBRANCH  15  28
BRANCH  21  46
ATOM     46  C   UNK A   3      10.327  38.030  26.414  0.00  0.00    +0.000 C 
ATOM     47  O   ACE A   4       9.560  38.978  26.256  0.00  0.00    +0.000 OA
ENDBRANCH  21  46
ENDBRANCH   8  11
ENDBRANCH   5   7
ENDBRANCH   3   5
BRANCH   1  48
ATOM     48  C   UNK A   1      15.212  34.941  27.544  0.00  0.00    +0.000 C 
BRANCH  48  49
ATOM     49  N   UNK A   1      15.380  36.317  27.995  0.00  0.00    +0.000 NA
ATOM     50  H   UNK A   1      14.793  36.673  28.777  0.00  0.00    +0.000 HD
ENDBRANCH  48  49
BRANCH  48  51
ATOM     51  C   UNK A   1      14.862  34.037  28.714  0.00  0.00    +0.000 C 
BRANCH  51  56
ATOM     52  N   UNK A   1      15.916  33.015  30.759  0.00  0.00    +0.000 N 
ATOM     53  C   UNK A   1      17.119  32.726  31.222  0.00  0.00    +0.000 A 
ATOM     54  N   UNK A   1      18.020  33.075  30.313  0.00  0.00    +0.000 NA
ATOM     55  C   UNK A   1      17.373  33.623  29.234  0.00  0.00    +0.000 A 
ATOM     56  C   UNK A   1      16.042  33.579  29.502  0.00  0.00    +0.000 A 
BRANCH  52  57
ATOM     57 ZN   UNK A   1      14.276  33.119  32.057  0.00  0.00    +0.000 Zn
BRANCH  57  61
ATOM     58  C   UNK A   1      14.643  37.221  32.211  0.00  0.00    +0.000 A 
ATOM     59  N   UNK A   1      13.432  37.111  32.870  0.00  0.00    +0.000 NA
ATOM     60  C   UNK A   1      12.970  35.877  32.716  0.00  0.00    +0.000 A 
ATOM     61  N   UNK A   1      13.810  35.207  31.942  0.00  0.00    +0.000 N 
ATOM     62  C   UNK A   1      14.888  36.008  31.654  0.00  0.00    +0.000 A 
BRANCH  58  63
ATOM     63  C   UNK A   1      15.456  38.461  32.230  0.00  0.00    +0.000 C 
BRANCH  63  64
ATOM     64  C   UNK A   1      14.970  39.541  31.260  0.00  0.00    +0.000 C 
BRANCH  64  65
ATOM     65  N   UNK A   1      13.664  40.058  31.647  0.00  0.00    +0.000 NA
ATOM     66  H   UNK A   1      12.803  39.656  31.225  0.00  0.00    +0.000 HD
ENDBRANCH  64  65
BRANCH  64  67
ATOM     67  C   UNK A   1      14.948  39.036  29.823  0.00  0.00    +0.000 C 
ATOM     68  O   UNK A   1      13.888  38.754  29.308  0.00  0.00    +0.000 OA
ENDBRANCH  64  67
ENDBRANCH  63  64
ENDBRANCH  58  63
ENDBRANCH  57  61
BRANCH  57  69
ATOM     69  N   UNK A   1      14.988  32.986  33.980  0.00  0.00    +0.000 N 
ATOM     70  C   UNK A   1      14.998  32.080  34.942  0.00  0.00    +0.000 A 
ATOM     71  N   UNK A   1      15.549  32.611  36.014  0.00  0.00    +0.000 NA
ATOM     72  C   UNK A   1      15.905  33.919  35.741  0.00  0.00    +0.000 A 
ATOM     73  C   UNK A   1      15.536  34.150  34.461  0.00  0.00    +0.000 A 
BRANCH  72  74
ATOM     74  C   UNK A   1      16.574  34.789  36.749  0.00  0.00    +0.000 C 
BRANCH  74  75
ATOM     75  C   UNK A   1      18.089  34.524  36.870  0.00  0.00    +0.000 C 
BRANCH  75  76
ATOM     76  C   UNK A   1      18.818  34.777  35.546  0.00  0.00    +0.000 C 
ATOM     77  N   UNK A   2      19.021  36.051  35.247  0.00  0.00    +0.000 N 
ATOM     78  H   UNK A   2      18.444  36.776  35.719  0.00  0.00    +0.000 HD
ATOM     79  O   UNK A   1      19.151  33.843  34.801  0.00  0.00    +0.000 OA
BRANCH  77  80
ATOM     80  C   UNK A   2      20.026  36.472  34.279  0.00  0.00    +0.000 C 
BRANCH  80  81
ATOM     81  C   UNK A   2      20.809  37.629  34.884  0.00  0.00    +0.000 C 
ATOM     82  O   UNK A   2      20.295  38.313  35.785  0.00  0.00    +0.000 OA
ENDBRANCH  80  81
BRANCH  80  83
ATOM     83  C   UNK A   2      19.400  36.954  32.968  0.00  0.00    +0.000 C 
ATOM     84  C   UNK A   2      18.453  35.913  32.316  0.00  0.00    +0.000 C 
BRANCH  83  85
ATOM     85  O   UNK A   2      18.599  38.125  33.205  0.00  0.00    +0.000 OA
ATOM     86  H   UNK A   2      17.879  37.906  33.849  0.00  0.00    +0.000 HD
ENDBRANCH  83  85
ENDBRANCH  80  83
ENDBRANCH  77  80
ENDBRANCH  75  76
BRANCH  75  87
ATOM     87  N   UNK A   1      18.684  35.370  37.890  0.00  0.00    +0.000 NA
ATOM     88  H   UNK A   1      18.074  36.002  38.447  0.00  0.00    +0.000 HD
ENDBRANCH  75  87
ENDBRANCH  74  75
ENDBRANCH  72  74
ENDBRANCH  57  69
ENDBRANCH  52  57
ENDBRANCH  51  56
ENDBRANCH  48  51
ENDBRANCH   1  48
TORSDOF 29
REMARK  Name = ../refined-set-2016/2fu8/2fu8_pocket.pdb
REMARK  113 active torsions:
REMARK  status: ('A' for Active; 'I' for Inactive)
REMARK    1  A    between atoms: _1  and  _3
REMARK    2  A    between atoms: _3  and  _4
REMARK    3  A    between atoms: _3  and  _6
REMARK    4  A    between atoms: _6  and  _7
REMARK    5  A    between atoms: _12  and  _13
REMARK    6  A    between atoms: _15  and  _17
REMARK    7  A    between atoms: _17  and  _18
REMARK    8  A    between atoms: _17  and  _20
REMARK    9  A    between atoms: _20  and  _21
REMARK   10  A    between atoms: _24  and  _26
REMARK   11  A    between atoms: _26  and  _27
REMARK   12  A    between atoms: _26  and  _29
REMARK   13  A    between atoms: _32  and  _34
REMARK   14  A    between atoms: _34  and  _35
REMARK   15  A    between atoms: _34  and  _37
REMARK   16  A    between atoms: _37  and  _38
REMARK   17  A    between atoms: _41  and  _43
REMARK   18  A    between atoms: _43  and  _44
REMARK   19  A    between atoms: _43  and  _46
REMARK   20  A    between atoms: _46  and  _47
REMARK   21  A    between atoms: _57  and  _59
REMARK   22  A    between atoms: _59  and  _60
REMARK   23  A    between atoms: _59  and  _62
REMARK   24  A    between atoms: _62  and  _63
REMARK   25  A    between atoms: _66  and  _68
REMARK   26  A    between atoms: _68  and  _69
REMARK   27  A    between atoms: _68  and  _71
REMARK   28  A    between atoms: _71  and  _72
REMARK   29  A    between atoms: _75  and  _77
REMARK   30  A    between atoms: _77  and  _78
REMARK   31  A    between atoms: _77  and  _80
REMARK   32  A    between atoms: _80  and  _81
REMARK   33  A    between atoms: _81  and  _82
REMARK   34  A    between atoms: _84  and  _86
REMARK   35  A    between atoms: _86  and  _87
REMARK   36  A    between atoms: _86  and  _89
REMARK   37  A    between atoms: _89  and  _90
REMARK   38  A    between atoms: _94  and  ZN_303
REMARK   39  A    between atoms: _95  and  _97
REMARK   40  A    between atoms: _97  and  _98
REMARK   41  A    between atoms: _97  and  _100
REMARK   42  A    between atoms: _100  and  _101
REMARK   43  A    between atoms: _102  and  ZN_303
REMARK   44  A    between atoms: _106  and  _108
REMARK   45  A    between atoms: _108  and  _109
REMARK   46  A    between atoms: _112  and  _114
REMARK   47  A    between atoms: _123  and  _124
REMARK   48  A    between atoms: _132  and  _134
REMARK   49  A    between atoms: _134  and  _135
REMARK   50  A    between atoms: _134  and  _137
REMARK   51  A    between atoms: _137  and  _138
REMARK   52  A    between atoms: _144  and  _146
REMARK   53  A    between atoms: _146  and  _147
REMARK   54  A    between atoms: _146  and  _149
REMARK   55  A    between atoms: _149  and  _150
REMARK   56  A    between atoms: _153  and  _155
REMARK   57  A    between atoms: _155  and  _156
REMARK   58  A    between atoms: _155  and  _158
REMARK   59  A    between atoms: _158  and  _159
REMARK   60  A    between atoms: _163  and  ZN_303
REMARK   61  A    between atoms: _164  and  _166
REMARK   62  A    between atoms: _166  and  _167
REMARK   63  A    between atoms: _166  and  _169
REMARK   64  A    between atoms: _169  and  _170
REMARK   65  A    between atoms: _173  and  _175
REMARK   66  A    between atoms: _175  and  _176
REMARK   67  A    between atoms: _175  and  _178
REMARK   68  A    between atoms: _178  and  _179
REMARK   69  A    between atoms: _182  and  _184
REMARK   70  A    between atoms: _184  and  _185
REMARK   71  A    between atoms: _184  and  _187
REMARK   72  A    between atoms: _187  and  _188
REMARK   73  A    between atoms: _190  and  _192
REMARK   74  A    between atoms: _192  and  _193
REMARK   75  A    between atoms: _192  and  _195
REMARK   76  A    between atoms: _195  and  _196
REMARK   77  A    between atoms: _199  and  _201
REMARK   78  A    between atoms: _201  and  _202
REMARK   79  A    between atoms: _201  and  _204
REMARK   80  A    between atoms: _204  and  _205
REMARK   81  A    between atoms: _207  and  _209
REMARK   82  A    between atoms: _209  and  _210
REMARK   83  A    between atoms: _214  and  _215
REMARK   84  A    between atoms: _220  and  _222
REMARK   85  A    between atoms: _222  and  _223
REMARK   86  A    between atoms: _225  and  _227
REMARK   87  A    between atoms: _227  and  _228
REMARK   88  A    between atoms: _227  and  _230
REMARK   89  A    between atoms: _230  and  _231
REMARK   90  A    between atoms: _236  and  _237
REMARK   91  A    between atoms: _239  and  _241
REMARK   92  A    between atoms: _241  and  _242
REMARK   93  A    between atoms: _241  and  _244
REMARK   94  A    between atoms: _244  and  _245
REMARK   95  A    between atoms: _250  and  _251
REMARK   96  A    between atoms: _254  and  _255
REMARK   97  A    between atoms: _260  and  _262
REMARK   98  A    between atoms: _262  and  _263
REMARK   99  A    between atoms: _262  and  _265
REMARK  100  A    between atoms: _265  and  _266
REMARK  101  A    between atoms: _270  and  ZN_304
REMARK  102  A    between atoms: _271  and  _273
REMARK  103  A    between atoms: _273  and  _274
REMARK  104  A    between atoms: _277  and  _279
REMARK  105  A    between atoms: _279  and  _280
REMARK  106  A    between atoms: _279  and  _282
REMARK  107  A    between atoms: _282  and  _283
REMARK  108  A    between atoms: _288  and  _289
REMARK  109  A    between atoms: _291  and  _293
REMARK  110  A    between atoms: _293  and  _294
REMARK  111  A    between atoms: _293  and  _296
REMARK  112  A    between atoms: _296  and  _297
REMARK  113  A    between atoms: _297  and  _298
REMARK                            x       y       z     vdW  Elec       q    Type
REMARK                         _______ _______ _______ _____ _____    ______ ____
ROOT
ATOM      1  CB  PHE A   1      20.211  27.961  28.265  0.00  0.00    +0.051 C 
ENDROOT
BRANCH   1   2
ATOM      2  CG  PHE A   1      19.234  28.175  29.389  0.00  0.00    -0.020 A 
ATOM      3  CD2 PHE A   1      19.148  27.272  30.435  0.00  0.00    -0.004 A 
ATOM      4  CE2 PHE A   1      18.239  27.454  31.457  0.00  0.00    -0.000 A 
ATOM      5  CZ  PHE A   1      17.423  28.539  31.461  0.00  0.00    -0.000 A 
ATOM      6  CE1 PHE A   1      17.471  29.461  30.429  0.00  0.00    -0.000 A 
ATOM      7  CD1 PHE A   1      18.385  29.288  29.387  0.00  0.00    -0.004 A 
ENDBRANCH   1   2
BRANCH   1   8
ATOM      8  CA  PHE A   1      21.522  27.271  28.692  0.00  0.00    +0.137 C 
BRANCH   8   9
ATOM      9  N   PHE A   1      22.197  28.057  29.719  0.00  0.00    -0.239 NA
ATOM     10  H   PHE A   1      22.138  29.095  29.680  0.00  0.00    +0.142 HD
ENDBRANCH   8   9
BRANCH   8  11
ATOM     11  C   PHE A   1      22.360  27.103  27.424  0.00  0.00    +0.224 C 
ATOM     12  O   PHE A   1      21.926  26.403  26.509  0.00  0.00    -0.287 OA
ENDBRANCH   8  11
ENDBRANCH   1   8
TORSDOF 4
REMARK  Name = ../refined-set-2016/2fu8/2fu8_pocket.pdb
REMARK  113 active torsions:
REMARK  status: ('A' for Active; 'I' for Inactive)
REMARK    1  A    between atoms: _1  and  _3
REMARK    2  A    between atoms: _3  and  _4
REMARK    3  A    between atoms: _3  and  _6
REMARK    4  A    between atoms: _6  and  _7
REMARK    5  A    between atoms: _12  and  _13
REMARK    6  A    between atoms: _15  and  _17
REMARK    7  A    between atoms: _17  and  _18
REMARK    8  A    between atoms: _17  and  _20
REMARK    9  A    between atoms: _20  and  _21
REMARK   10  A    between atoms: _24  and  _26
REMARK   11  A    between atoms: _26  and  _27
REMARK   12  A    between atoms: _26  and  _29
REMARK   13  A    between atoms: _32  and  _34
REMARK   14  A    between atoms: _34  and  _35
REMARK   15  A    between atoms: _34  and  _37
REMARK   16  A    between atoms: _37  and  _38
REMARK   17  A    between atoms: _41  and  _43
REMARK   18  A    between atoms: _43  and  _44
REMARK   19  A    between atoms: _43  and  _46
REMARK   20  A    between atoms: _46  and  _47
REMARK   21  A    between atoms: _57  and  _59
REMARK   22  A    between atoms: _59  and  _60
REMARK   23  A    between atoms: _59  and  _62
REMARK   24  A    between atoms: _62  and  _63
REMARK   25  A    between atoms: _66  and  _68
REMARK   26  A    between atoms: _68  and  _69
REMARK   27  A    between atoms: _68  and  _71
REMARK   28  A    between atoms: _71  and  _72
REMARK   29  A    between atoms: _75  and  _77
REMARK   30  A    between atoms: _77  and  _78
REMARK   31  A    between atoms: _77  and  _80
REMARK   32  A    between atoms: _80  and  _81
REMARK   33  A    between atoms: _81  and  _82
REMARK   34  A    between atoms: _84  and  _86
REMARK   35  A    between atoms: _86  and  _87
REMARK   36  A    between atoms: _86  and  _89
REMARK   37  A    between atoms: _89  and  _90
REMARK   38  A    between atoms: _94  and  ZN_303
REMARK   39  A    between atoms: _95  and  _97
REMARK   40  A    between atoms: _97  and  _98
REMARK   41  A    between atoms: _97  and  _100
REMARK   42  A    between atoms: _100  and  _101
REMARK   43  A    between atoms: _102  and  ZN_303
REMARK   44  A    between atoms: _106  and  _108
REMARK   45  A    between atoms: _108  and  _109
REMARK   46  A    between atoms: _112  and  _114
REMARK   47  A    between atoms: _123  and  _124
REMARK   48  A    between atoms: _132  and  _134
REMARK   49  A    between atoms: _134  and  _135
REMARK   50  A    between atoms: _134  and  _137
REMARK   51  A    between atoms: _137  and  _138
REMARK   52  A    between atoms: _144  and  _146
REMARK   53  A    between atoms: _146  and  _147
REMARK   54  A    between atoms: _146  and  _149
REMARK   55  A    between atoms: _149  and  _150
REMARK   56  A    between atoms: _153  and  _155
REMARK   57  A    between atoms: _155  and  _156
REMARK   58  A    between atoms: _155  and  _158
REMARK   59  A    between atoms: _158  and  _159
REMARK   60  A    between atoms: _163  and  ZN_303
REMARK   61  A    between atoms: _164  and  _166
REMARK   62  A    between atoms: _166  and  _167
REMARK   63  A    between atoms: _166  and  _169
REMARK   64  A    between atoms: _169  and  _170
REMARK   65  A    between atoms: _173  and  _175
REMARK   66  A    between atoms: _175  and  _176
REMARK   67  A    between atoms: _175  and  _178
REMARK   68  A    between atoms: _178  and  _179
REMARK   69  A    between atoms: _182  and  _184
REMARK   70  A    between atoms: _184  and  _185
REMARK   71  A    between atoms: _184  and  _187
REMARK   72  A    between atoms: _187  and  _188
REMARK   73  A    between atoms: _190  and  _192
REMARK   74  A    between atoms: _192  and  _193
REMARK   75  A    between atoms: _192  and  _195
REMARK   76  A    between atoms: _195  and  _196
REMARK   77  A    between atoms: _199  and  _201
REMARK   78  A    between atoms: _201  and  _202
REMARK   79  A    between atoms: _201  and  _204
REMARK   80  A    between atoms: _204  and  _205
REMARK   81  A    between atoms: _207  and  _209
REMARK   82  A    between atoms: _209  and  _210
REMARK   83  A    between atoms: _214  and  _215
REMARK   84  A    between atoms: _220  and  _222
REMARK   85  A    between atoms: _222  and  _223
REMARK   86  A    between atoms: _225  and  _227
REMARK   87  A    between atoms: _227  and  _228
REMARK   88  A    between atoms: _227  and  _230
REMARK   89  A    between atoms: _230  and  _231
REMARK   90  A    between atoms: _236  and  _237
REMARK   91  A    between atoms: _239  and  _241
REMARK   92  A    between atoms: _241  and  _242
REMARK   93  A    between atoms: _241  and  _244
REMARK   94  A    between atoms: _244  and  _245
REMARK   95  A    between atoms: _250  and  _251
REMARK   96  A    between atoms: _254  and  _255
REMARK   97  A    between atoms: _260  and  _262
REMARK   98  A    between atoms: _262  and  _263
REMARK   99  A    between atoms: _262  and  _265
REMARK  100  A    between atoms: _265  and  _266
REMARK  101  A    between atoms: _270  and  ZN_304
REMARK  102  A    between atoms: _271  and  _273
REMARK  103  A    between atoms: _273  and  _274
REMARK  104  A    between atoms: _277  and  _279
REMARK  105  A    between atoms: _279  and  _280
REMARK  106  A    between atoms: _279  and  _282
REMARK  107  A    between atoms: _282  and  _283
REMARK  108  A    between atoms: _288  and  _289
REMARK  109  A    between atoms: _291  and  _293
REMARK  110  A    between atoms: _293  and  _294
REMARK  111  A    between atoms: _293  and  _296
REMARK  112  A    between atoms: _296  and  _297
REMARK  113  A    between atoms: _297  and  _298
REMARK                            x       y       z     vdW  Elec       q    Type
REMARK                         _______ _______ _______ _____ _____    ______ ____
ROOT
ATOM      1  CA  ILE A   1      17.062  28.588  23.875  0.00  0.00    +0.133 C 
ENDROOT
BRANCH   1   2
ATOM      2  N   ILE A   1      18.283  27.805  23.904  0.00  0.00    -0.239 NA
ATOM      3  H   ILE A   1      19.175  28.263  24.181  0.00  0.00    +0.142 HD
ENDBRANCH   1   2
BRANCH   1   4
ATOM      4  CB  ILE A   1      16.454  28.731  25.319  0.00  0.00    +0.023 C 
ATOM      5  CG2 ILE A   1      15.099  29.381  25.241  0.00  0.00    +0.002 C 
BRANCH   4   6
ATOM      6  CG1 ILE A   1      16.306  27.354  25.987  0.00  0.00    +0.002 C 
ATOM      7  CD1 ILE A   1      15.850  27.352  27.457  0.00  0.00    +0.000 C 
ENDBRANCH   4   6
ENDBRANCH   1   4
BRANCH   1   8
ATOM      8  C   ILE A   1      17.408  29.935  23.255  0.00  0.00    +0.224 C 
ATOM      9  O   ILE A   1      17.720  30.871  23.955  0.00  0.00    -0.287 OA
ENDBRANCH   1   8
TORSDOF 4
REMARK  Name = ../refined-set-2016/2fu8/2fu8_pocket.pdb
REMARK  113 active torsions:
REMARK  status: ('A' for Active; 'I' for Inactive)
REMARK    1  A    between atoms: _1  and  _3
REMARK    2  A    between atoms: _3  and  _4
REMARK    3  A    between atoms: _3  and  _6
REMARK    4  A    between atoms: _6  and  _7
REMARK    5  A    between atoms: _12  and  _13
REMARK    6  A    between atoms: _15  and  _17
REMARK    7  A    between atoms: _17  and  _18
REMARK    8  A    between atoms: _17  and  _20
REMARK    9  A    between atoms: _20  and  _21
REMARK   10  A    between atoms: _24  and  _26
REMARK   11  A    between atoms: _26  and  _27
REMARK   12  A    between atoms: _26  and  _29
REMARK   13  A    between atoms: _32  and  _34
REMARK   14  A    between atoms: _34  and  _35
REMARK   15  A    between atoms: _34  and  _37
REMARK   16  A    between atoms: _37  and  _38
REMARK   17  A    between atoms: _41  and  _43
REMARK   18  A    between atoms: _43  and  _44
REMARK   19  A    between atoms: _43  and  _46
REMARK   20  A    between atoms: _46  and  _47
REMARK   21  A    between atoms: _57  and  _59
REMARK   22  A    between atoms: _59  and  _60
REMARK   23  A    between atoms: _59  and  _62
REMARK   24  A    between atoms: _62  and  _63
REMARK   25  A    between atoms: _66  and  _68
REMARK   26  A    between atoms: _68  and  _69
REMARK   27  A    between atoms: _68  and  _71
REMARK   28  A    between atoms: _71  and  _72
REMARK   29  A    between atoms: _75  and  _77
REMARK   30  A    between atoms: _77  and  _78
REMARK   31  A    between atoms: _77  and  _80
REMARK   32  A    between atoms: _80  and  _81
REMARK   33  A    between atoms: _81  and  _82
REMARK   34  A    between atoms: _84  and  _86
REMARK   35  A    between atoms: _86  and  _87
REMARK   36  A    between atoms: _86  and  _89
REMARK   37  A    between atoms: _89  and  _90
REMARK   38  A    between atoms: _94  and  ZN_303
REMARK   39  A    between atoms: _95  and  _97
REMARK   40  A    between atoms: _97  and  _98
REMARK   41  A    between atoms: _97  and  _100
REMARK   42  A    between atoms: _100  and  _101
REMARK   43  A    between atoms: _102  and  ZN_303
REMARK   44  A    between atoms: _106  and  _108
REMARK   45  A    between atoms: _108  and  _109
REMARK   46  A    between atoms: _112  and  _114
REMARK   47  A    between atoms: _123  and  _124
REMARK   48  A    between atoms: _132  and  _134
REMARK   49  A    between atoms: _134  and  _135
REMARK   50  A    between atoms: _134  and  _137
REMARK   51  A    between atoms: _137  and  _138
REMARK   52  A    between atoms: _144  and  _146
REMARK   53  A    between atoms: _146  and  _147
REMARK   54  A    between atoms: _146  and  _149
REMARK   55  A    between atoms: _149  and  _150
REMARK   56  A    between atoms: _153  and  _155
REMARK   57  A    between atoms: _155  and  _156
REMARK   58  A    between atoms: _155  and  _158
REMARK   59  A    between atoms: _158  and  _159
REMARK   60  A    between atoms: _163  and  ZN_303
REMARK   61  A    between atoms: _164  and  _166
REMARK   62  A    between atoms: _166  and  _167
REMARK   63  A    between atoms: _166  and  _169
REMARK   64  A    between atoms: _169  and  _170
REMARK   65  A    between atoms: _173  and  _175
REMARK   66  A    between atoms: _175  and  _176
REMARK   67  A    between atoms: _175  and  _178
REMARK   68  A    between atoms: _178  and  _179
REMARK   69  A    between atoms: _182  and  _184
REMARK   70  A    between atoms: _184  and  _185
REMARK   71  A    between atoms: _184  and  _187
REMARK   72  A    between atoms: _187  and  _188
REMARK   73  A    between atoms: _190  and  _192
REMARK   74  A    between atoms: _192  and  _193
REMARK   75  A    between atoms: _192  and  _195
REMARK   76  A    between atoms: _195  and  _196
REMARK   77  A    between atoms: _199  and  _201
REMARK   78  A    between atoms: _201  and  _202
REMARK   79  A    between atoms: _201  and  _204
REMARK   80  A    between atoms: _204  and  _205
REMARK   81  A    between atoms: _207  and  _209
REMARK   82  A    between atoms: _209  and  _210
REMARK   83  A    between atoms: _214  and  _215
REMARK   84  A    between atoms: _220  and  _222
REMARK   85  A    between atoms: _222  and  _223
REMARK   86  A    between atoms: _225  and  _227
REMARK   87  A    between atoms: _227  and  _228
REMARK   88  A    between atoms: _227  and  _230
REMARK   89  A    between atoms: _230  and  _231
REMARK   90  A    between atoms: _236  and  _237
REMARK   91  A    between atoms: _239  and  _241
REMARK   92  A    between atoms: _241  and  _242
REMARK   93  A    between atoms: _241  and  _244
REMARK   94  A    between atoms: _244  and  _245
REMARK   95  A    between atoms: _250  and  _251
REMARK   96  A    between atoms: _254  and  _255
REMARK   97  A    between atoms: _260  and  _262
REMARK   98  A    between atoms: _262  and  _263
REMARK   99  A    between atoms: _262  and  _265
REMARK  100  A    between atoms: _265  and  _266
REMARK  101  A    between atoms: _270  and  ZN_304
REMARK  102  A    between atoms: _271  and  _273
REMARK  103  A    between atoms: _273  and  _274
REMARK  104  A    between atoms: _277  and  _279
REMARK  105  A    between atoms: _279  and  _280
REMARK  106  A    between atoms: _279  and  _282
REMARK  107  A    between atoms: _282  and  _283
REMARK  108  A    between atoms: _288  and  _289
REMARK  109  A    between atoms: _291  and  _293
REMARK  110  A    between atoms: _293  and  _294
REMARK  111  A    between atoms: _293  and  _296
REMARK  112  A    between atoms: _296  and  _297
REMARK  113  A    between atoms: _297  and  _298
REMARK                            x       y       z     vdW  Elec       q    Type
REMARK                         _______ _______ _______ _____ _____    ______ ____
ROOT
ATOM      1  C   SER A   4      15.768  30.723  39.166  0.00  0.00    +0.243 C 
ATOM      2  N   ALA A   5      16.291  29.510  39.303  0.00  0.00    -0.297 N 
ATOM      3  H   ALA A   5      15.730  28.787  39.797  0.00  0.00    +0.150 HD
ATOM      4  O   SER A   4      16.338  31.668  38.637  0.00  0.00    -0.273 OA
ENDROOT
BRANCH   2   5
ATOM      5  CA  ALA A   5      17.598  29.135  38.804  0.00  0.00    +0.149 C 
ATOM      6  CB  ALA A   5      18.590  29.167  39.925  0.00  0.00    +0.031 C 
BRANCH   5   7
ATOM      7  C   ALA A   5      17.493  27.738  38.192  0.00  0.00    +0.244 C 
ATOM      8  O   ALA A   5      18.116  26.804  38.673  0.00  0.00    -0.273 OA
ATOM      9  N   PRO A   6      16.710  27.600  37.121  0.00  0.00    -0.272 N 
ATOM     10  CA  PRO A   6      16.347  26.295  36.543  0.00  0.00    +0.152 C 
ATOM     11  CB  PRO A   6      15.384  26.668  35.437  0.00  0.00    +0.031 C 
ATOM     12  CG  PRO A   6      15.786  28.135  35.075  0.00  0.00    +0.024 C 
ATOM     13  CD  PRO A   6      16.102  28.716  36.380  0.00  0.00    +0.094 C 
BRANCH  10  14
ATOM     14  C   PRO A   6      17.523  25.515  35.949  0.00  0.00    +0.241 C 
ATOM     15  N   GLY A   7      17.959  24.482  36.664  0.00  0.00    -0.295 N 
ATOM     16  H   GLY A   7      17.464  24.243  37.547  0.00  0.00    +0.150 HD
ATOM     17  O   PRO A   6      18.017  25.866  34.866  0.00  0.00    -0.273 OA
BRANCH  15  18
ATOM     18  CA  GLY A   7      19.101  23.672  36.262  0.00  0.00    +0.176 C 
BRANCH  18  19
ATOM     19  C   GLY A   7      20.465  24.351  36.390  0.00  0.00    +0.243 C 
ATOM     20  N   TYR A   8      20.510  25.507  37.062  0.00  0.00    -0.298 N 
ATOM     21  H   TYR A   8      19.655  25.854  37.542  0.00  0.00    +0.150 HD
ATOM     22  O   GLY A   7      21.480  23.831  35.869  0.00  0.00    -0.273 OA
BRANCH  20  23
ATOM     23  CA  TYR A   8      21.743  26.290  37.131  0.00  0.00    +0.141 C 
BRANCH  23  24
ATOM     24  C   TYR A   8      22.715  25.626  38.083  0.00  0.00    +0.227 C 
ATOM     25  O   TYR A   8      22.322  25.131  39.154  0.00  0.00    -0.286 OA
ENDBRANCH  23  24
BRANCH  23  26
ATOM     26  CB  TYR A   8      21.492  27.713  37.644  0.00  0.00    +0.054 C 
BRANCH  26  27
ATOM     27  CG  TYR A   8      20.718  28.662  36.738  0.00  0.00    -0.020 A 
ATOM     28  CD2 TYR A   8      20.562  29.999  37.108  0.00  0.00    -0.001 A 
ATOM     29  CE2 TYR A   8      19.848  30.904  36.300  0.00  0.00    +0.036 A 
ATOM     30  CZ  TYR A   8      19.266  30.450  35.137  0.00  0.00    +0.134 A 
ATOM     31  CE1 TYR A   8      19.374  29.109  34.771  0.00  0.00    +0.036 A 
ATOM     32  CD1 TYR A   8      20.108  28.238  35.557  0.00  0.00    -0.001 A 
BRANCH  30  33
ATOM     33  OH  TYR A   8      18.563  31.310  34.369  0.00  0.00    -0.506 OA
ATOM     34  HH  TYR A   8      19.154  32.048  34.076  0.00  0.00    +0.292 HD
ENDBRANCH  30  33
ENDBRANCH  26  27
ENDBRANCH  23  26
ENDBRANCH  20  23
ENDBRANCH  18  19
ENDBRANCH  15  18
ENDBRANCH  10  14
ENDBRANCH   5   7
ENDBRANCH   2   5
BRANCH   1  35
ATOM     35  CA  SER A   4      14.365  30.881  39.708  0.00  0.00    +0.178 C 
BRANCH  35  38
ATOM     36  C   LEU A   3      14.315  33.036  40.913  0.00  0.00    +0.241 C 
ATOM     37  O   LEU A   3      14.922  32.564  41.857  0.00  0.00    -0.273 OA
ATOM     38  N   SER A   4      14.023  32.302  39.799  0.00  0.00    -0.295 N 
ATOM     39  H   SER A   4      13.547  32.763  38.997  0.00  0.00    +0.150 HD
BRANCH  36  40
ATOM     40  CA  LEU A   3      13.975  34.508  40.867  0.00  0.00    +0.149 C 
BRANCH  40  42
ATOM     41  C   SER A   2      13.121  35.575  38.807  0.00  0.00    +0.243 C 
ATOM     42  N   LEU A   3      12.968  34.745  39.831  0.00  0.00    -0.297 N 
ATOM     43  H   LEU A   3      12.069  34.226  39.903  0.00  0.00    +0.150 HD
ATOM     44  O   SER A   2      14.106  36.304  38.648  0.00  0.00    -0.273 OA
BRANCH  41  45
ATOM     45  CA  SER A   2      11.978  35.590  37.811  0.00  0.00    +0.178 C 
BRANCH  45  48
ATOM     46  C   ASP A   1      11.502  37.979  38.095  0.00  0.00    +0.239 C 
ATOM     47  O   ASP A   1      11.377  37.900  39.325  0.00  0.00    -0.274 OA
ATOM     48  N   SER A   2      11.685  36.923  37.318  0.00  0.00    -0.295 N 
ATOM     49  H   SER A   2      11.614  37.057  36.289  0.00  0.00    +0.150 HD
BRANCH  46  50
ATOM     50  CA  ASP A   1      11.480  39.327  37.375  0.00  0.00    +0.156 C 
BRANCH  50  51
ATOM     51  N   ASP A   1      10.992  40.392  38.247  0.00  0.00    -0.238 NA
ATOM     52  H   ASP A   1      11.662  41.101  38.609  0.00  0.00    +0.142 HD
ENDBRANCH  50  51
BRANCH  50  53
ATOM     53  CB  ASP A   1      12.903  39.670  36.868  0.00  0.00    +0.140 C 
BRANCH  53  54
ATOM     54  CG  ASP A   1      13.311  38.876  35.647  0.00  0.00    +0.367 C 
ATOM     55  OD2 ASP A   1      14.517  38.814  35.303  0.00  0.00    -0.246 OA
ATOM     56  OD1 ASP A   1      12.429  38.257  34.978  0.00  0.00    -0.246 OA
ENDBRANCH  53  54
ENDBRANCH  50  53
ENDBRANCH  46  50
ENDBRANCH  45  48
BRANCH  45  57
ATOM     57  CB  SER A   2      12.374  34.668  36.645  0.00  0.00    +0.166 C 
BRANCH  57  58
ATOM     58  OG  SER A   2      11.393  34.663  35.635  0.00  0.00    -0.380 OA
ATOM     59  H   SER A   2      10.535  34.342  36.011  0.00  0.00    +0.211 HD
ENDBRANCH  57  58
ENDBRANCH  45  57
ENDBRANCH  41  45
ENDBRANCH  40  42
BRANCH  40  60
ATOM     60  CB  LEU A   3      13.455  34.936  42.232  0.00  0.00    +0.029 C 
BRANCH  60  61
ATOM     61  CG  LEU A   3      13.401  36.451  42.443  0.00  0.00    +0.002 C 
ATOM     62  CD2 LEU A   3      12.626  36.750  43.694  0.00  0.00    +0.000 C 
ATOM     63  CD1 LEU A   3      14.837  37.024  42.529  0.00  0.00    +0.000 C 
ENDBRANCH  60  61
ENDBRANCH  40  60
ENDBRANCH  36  40
ENDBRANCH  35  38
BRANCH  35  64
ATOM     64  CB  SER A   4      13.382  30.190  38.789  0.00  0.00    +0.166 C 
BRANCH  64  65
ATOM     65  OG  SER A   4      13.435  30.813  37.497  0.00  0.00    -0.380 OA
ATOM     66  H   SER A   4      12.794  30.366  36.890  0.00  0.00    +0.211 HD
ENDBRANCH  64  65
ENDBRANCH  35  64
ENDBRANCH   1  35
TORSDOF 26
REMARK  Name = ../refined-set-2016/2fu8/2fu8_pocket.pdb
REMARK  113 active torsions:
REMARK  status: ('A' for Active; 'I' for Inactive)
REMARK    1  A    between atoms: _1  and  _3
REMARK    2  A    between atoms: _3  and  _4
REMARK    3  A    between atoms: _3  and  _6
REMARK    4  A    between atoms: _6  and  _7
REMARK    5  A    between atoms: _12  and  _13
REMARK    6  A    between atoms: _15  and  _17
REMARK    7  A    between atoms: _17  and  _18
REMARK    8  A    between atoms: _17  and  _20
REMARK    9  A    between atoms: _20  and  _21
REMARK   10  A    between atoms: _24  and  _26
REMARK   11  A    between atoms: _26  and  _27
REMARK   12  A    between atoms: _26  and  _29
REMARK   13  A    between atoms: _32  and  _34
REMARK   14  A    between atoms: _34  and  _35
REMARK   15  A    between atoms: _34  and  _37
REMARK   16  A    between atoms: _37  and  _38
REMARK   17  A    between atoms: _41  and  _43
REMARK   18  A    between atoms: _43  and  _44
REMARK   19  A    between atoms: _43  and  _46
REMARK   20  A    between atoms: _46  and  _47
REMARK   21  A    between atoms: _57  and  _59
REMARK   22  A    between atoms: _59  and  _60
REMARK   23  A    between atoms: _59  and  _62
REMARK   24  A    between atoms: _62  and  _63
REMARK   25  A    between atoms: _66  and  _68
REMARK   26  A    between atoms: _68  and  _69
REMARK   27  A    between atoms: _68  and  _71
REMARK   28  A    between atoms: _71  and  _72
REMARK   29  A    between atoms: _75  and  _77
REMARK   30  A    between atoms: _77  and  _78
REMARK   31  A    between atoms: _77  and  _80
REMARK   32  A    between atoms: _80  and  _81
REMARK   33  A    between atoms: _81  and  _82
REMARK   34  A    between atoms: _84  and  _86
REMARK   35  A    between atoms: _86  and  _87
REMARK   36  A    between atoms: _86  and  _89
REMARK   37  A    between atoms: _89  and  _90
REMARK   38  A    between atoms: _94  and  ZN_303
REMARK   39  A    between atoms: _95  and  _97
REMARK   40  A    between atoms: _97  and  _98
REMARK   41  A    between atoms: _97  and  _100
REMARK   42  A    between atoms: _100  and  _101
REMARK   43  A    between atoms: _102  and  ZN_303
REMARK   44  A    between atoms: _106  and  _108
REMARK   45  A    between atoms: _108  and  _109
REMARK   46  A    between atoms: _112  and  _114
REMARK   47  A    between atoms: _123  and  _124
REMARK   48  A    between atoms: _132  and  _134
REMARK   49  A    between atoms: _134  and  _135
REMARK   50  A    between atoms: _134  and  _137
REMARK   51  A    between atoms: _137  and  _138
REMARK   52  A    between atoms: _144  and  _146
REMARK   53  A    between atoms: _146  and  _147
REMARK   54  A    between atoms: _146  and  _149
REMARK   55  A    between atoms: _149  and  _150
REMARK   56  A    between atoms: _153  and  _155
REMARK   57  A    between atoms: _155  and  _156
REMARK   58  A    between atoms: _155  and  _158
REMARK   59  A    between atoms: _158  and  _159
REMARK   60  A    between atoms: _163  and  ZN_303
REMARK   61  A    between atoms: _164  and  _166
REMARK   62  A    between atoms: _166  and  _167
REMARK   63  A    between atoms: _166  and  _169
REMARK   64  A    between atoms: _169  and  _170
REMARK   65  A    between atoms: _173  and  _175
REMARK   66  A    between atoms: _175  and  _176
REMARK   67  A    between atoms: _175  and  _178
REMARK   68  A    between atoms: _178  and  _179
REMARK   69  A    between atoms: _182  and  _184
REMARK   70  A    between atoms: _184  and  _185
REMARK   71  A    between atoms: _184  and  _187
REMARK   72  A    between atoms: _187  and  _188
REMARK   73  A    between atoms: _190  and  _192
REMARK   74  A    between atoms: _192  and  _193
REMARK   75  A    between atoms: _192  and  _195
REMARK   76  A    between atoms: _195  and  _196
REMARK   77  A    between atoms: _199  and  _201
REMARK   78  A    between atoms: _201  and  _202
REMARK   79  A    between atoms: _201  and  _204
REMARK   80  A    between atoms: _204  and  _205
REMARK   81  A    between atoms: _207  and  _209
REMARK   82  A    between atoms: _209  and  _210
REMARK   83  A    between atoms: _214  and  _215
REMARK   84  A    between atoms: _220  and  _222
REMARK   85  A    between atoms: _222  and  _223
REMARK   86  A    between atoms: _225  and  _227
REMARK   87  A    between atoms: _227  and  _228
REMARK   88  A    between atoms: _227  and  _230
REMARK   89  A    between atoms: _230  and  _231
REMARK   90  A    between atoms: _236  and  _237
REMARK   91  A    between atoms: _239  and  _241
REMARK   92  A    between atoms: _241  and  _242
REMARK   93  A    between atoms: _241  and  _244
REMARK   94  A    between atoms: _244  and  _245
REMARK   95  A    between atoms: _250  and  _251
REMARK   96  A    between atoms: _254  and  _255
REMARK   97  A    between atoms: _260  and  _262
REMARK   98  A    between atoms: _262  and  _263
REMARK   99  A    between atoms: _262  and  _265
REMARK  100  A    between atoms: _265  and  _266
REMARK  101  A    between atoms: _270  and  ZN_304
REMARK  102  A    between atoms: _271  and  _273
REMARK  103  A    between atoms: _273  and  _274
REMARK  104  A    between atoms: _277  and  _279
REMARK  105  A    between atoms: _279  and  _280
REMARK  106  A    between atoms: _279  and  _282
REMARK  107  A    between atoms: _282  and  _283
REMARK  108  A    between atoms: _288  and  _289
REMARK  109  A    between atoms: _291  and  _293
REMARK  110  A    between atoms: _293  and  _294
REMARK  111  A    between atoms: _293  and  _296
REMARK  112  A    between atoms: _296  and  _297
REMARK  113  A    between atoms: _297  and  _298
REMARK                            x       y       z     vdW  Elec       q    Type
REMARK                         _______ _______ _______ _____ _____    ______ ____
ROOT
ATOM      1  CG  TYR A   1      19.995  34.100  42.785  0.00  0.00    -0.020 A 
ATOM      2  CD2 TYR A   1      18.679  33.799  42.519  0.00  0.00    -0.001 A 
ATOM      3  CE2 TYR A   1      18.303  33.227  41.310  0.00  0.00    +0.036 A 
ATOM      4  CZ  TYR A   1      19.256  32.969  40.361  0.00  0.00    +0.134 A 
ATOM      5  CE1 TYR A   1      20.570  33.257  40.610  0.00  0.00    +0.036 A 
ATOM      6  CD1 TYR A   1      20.932  33.823  41.793  0.00  0.00    -0.001 A 
ENDROOT
BRANCH   4   7
ATOM      7  OH  TYR A   1      18.885  32.411  39.166  0.00  0.00    -0.506 OA
ATOM      8  HH  TYR A   1      18.461  31.532  39.331  0.00  0.00    +0.292 HD
ENDBRANCH   4   7
BRANCH   1   9
ATOM      9  CB  TYR A   1      20.412  34.685  44.100  0.00  0.00    +0.051 C 
BRANCH   9  10
ATOM     10  CA  TYR A   1      20.526  36.192  44.133  0.00  0.00    +0.137 C 
BRANCH  10  11
ATOM     11  N   TYR A   1      21.874  36.650  43.812  0.00  0.00    -0.239 NA
ATOM     12  H   TYR A   1      22.627  35.967  43.591  0.00  0.00    +0.142 HD
ENDBRANCH  10  11
BRANCH  10  13
ATOM     13  C   TYR A   1      20.101  36.701  45.512  0.00  0.00    +0.224 C 
ATOM     14  O   TYR A   1      19.010  37.193  45.656  0.00  0.00    -0.287 OA
ENDBRANCH  10  13
ENDBRANCH   9  10
ENDBRANCH   1   9
TORSDOF 5
REMARK  Name = ../refined-set-2016/2fu8/2fu8_pocket.pdb
REMARK  113 active torsions:
REMARK  status: ('A' for Active; 'I' for Inactive)
REMARK    1  A    between atoms: _1  and  _3
REMARK    2  A    between atoms: _3  and  _4
REMARK    3  A    between atoms: _3  and  _6
REMARK    4  A    between atoms: _6  and  _7
REMARK    5  A    between atoms: _12  and  _13
REMARK    6  A    between atoms: _15  and  _17
REMARK    7  A    between atoms: _17  and  _18
REMARK    8  A    between atoms: _17  and  _20
REMARK    9  A    between atoms: _20  and  _21
REMARK   10  A    between atoms: _24  and  _26
REMARK   11  A    between atoms: _26  and  _27
REMARK   12  A    between atoms: _26  and  _29
REMARK   13  A    between atoms: _32  and  _34
REMARK   14  A    between atoms: _34  and  _35
REMARK   15  A    between atoms: _34  and  _37
REMARK   16  A    between atoms: _37  and  _38
REMARK   17  A    between atoms: _41  and  _43
REMARK   18  A    between atoms: _43  and  _44
REMARK   19  A    between atoms: _43  and  _46
REMARK   20  A    between atoms: _46  and  _47
REMARK   21  A    between atoms: _57  and  _59
REMARK   22  A    between atoms: _59  and  _60
REMARK   23  A    between atoms: _59  and  _62
REMARK   24  A    between atoms: _62  and  _63
REMARK   25  A    between atoms: _66  and  _68
REMARK   26  A    between atoms: _68  and  _69
REMARK   27  A    between atoms: _68  and  _71
REMARK   28  A    between atoms: _71  and  _72
REMARK   29  A    between atoms: _75  and  _77
REMARK   30  A    between atoms: _77  and  _78
REMARK   31  A    between atoms: _77  and  _80
REMARK   32  A    between atoms: _80  and  _81
REMARK   33  A    between atoms: _81  and  _82
REMARK   34  A    between atoms: _84  and  _86
REMARK   35  A    between atoms: _86  and  _87
REMARK   36  A    between atoms: _86  and  _89
REMARK   37  A    between atoms: _89  and  _90
REMARK   38  A    between atoms: _94  and  ZN_303
REMARK   39  A    between atoms: _95  and  _97
REMARK   40  A    between atoms: _97  and  _98
REMARK   41  A    between atoms: _97  and  _100
REMARK   42  A    between atoms: _100  and  _101
REMARK   43  A    between atoms: _102  and  ZN_303
REMARK   44  A    between atoms: _106  and  _108
REMARK   45  A    between atoms: _108  and  _109
REMARK   46  A    between atoms: _112  and  _114
REMARK   47  A    between atoms: _123  and  _124
REMARK   48  A    between atoms: _132  and  _134
REMARK   49  A    between atoms: _134  and  _135
REMARK   50  A    between atoms: _134  and  _137
REMARK   51  A    between atoms: _137  and  _138
REMARK   52  A    between atoms: _144  and  _146
REMARK   53  A    between atoms: _146  and  _147
REMARK   54  A    between atoms: _146  and  _149
REMARK   55  A    between atoms: _149  and  _150
REMARK   56  A    between atoms: _153  and  _155
REMARK   57  A    between atoms: _155  and  _156
REMARK   58  A    between atoms: _155  and  _158
REMARK   59  A    between atoms: _158  and  _159
REMARK   60  A    between atoms: _163  and  ZN_303
REMARK   61  A    between atoms: _164  and  _166
REMARK   62  A    between atoms: _166  and  _167
REMARK   63  A    between atoms: _166  and  _169
REMARK   64  A    between atoms: _169  and  _170
REMARK   65  A    between atoms: _173  and  _175
REMARK   66  A    between atoms: _175  and  _176
REMARK   67  A    between atoms: _175  and  _178
REMARK   68  A    between atoms: _178  and  _179
REMARK   69  A    between atoms: _182  and  _184
REMARK   70  A    between atoms: _184  and  _185
REMARK   71  A    between atoms: _184  and  _187
REMARK   72  A    between atoms: _187  and  _188
REMARK   73  A    between atoms: _190  and  _192
REMARK   74  A    between atoms: _192  and  _193
REMARK   75  A    between atoms: _192  and  _195
REMARK   76  A    between atoms: _195  and  _196
REMARK   77  A    between atoms: _199  and  _201
REMARK   78  A    between atoms: _201  and  _202
REMARK   79  A    between atoms: _201  and  _204
REMARK   80  A    between atoms: _204  and  _205
REMARK   81  A    between atoms: _207  and  _209
REMARK   82  A    between atoms: _209  and  _210
REMARK   83  A    between atoms: _214  and  _215
REMARK   84  A    between atoms: _220  and  _222
REMARK   85  A    between atoms: _222  and  _223
REMARK   86  A    between atoms: _225  and  _227
REMARK   87  A    between atoms: _227  and  _228
REMARK   88  A    between atoms: _227  and  _230
REMARK   89  A    between atoms: _230  and  _231
REMARK   90  A    between atoms: _236  and  _237
REMARK   91  A    between atoms: _239  and  _241
REMARK   92  A    between atoms: _241  and  _242
REMARK   93  A    between atoms: _241  and  _244
REMARK   94  A    between atoms: _244  and  _245
REMARK   95  A    between atoms: _250  and  _251
REMARK   96  A    between atoms: _254  and  _255
REMARK   97  A    between atoms: _260  and  _262
REMARK   98  A    between atoms: _262  and  _263
REMARK   99  A    between atoms: _262  and  _265
REMARK  100  A    between atoms: _265  and  _266
REMARK  101  A    between atoms: _270  and  ZN_304
REMARK  102  A    between atoms: _271  and  _273
REMARK  103  A    between atoms: _273  and  _274
REMARK  104  A    between atoms: _277  and  _279
REMARK  105  A    between atoms: _279  and  _280
REMARK  106  A    between atoms: _279  and  _282
REMARK  107  A    between atoms: _282  and  _283
REMARK  108  A    between atoms: _288  and  _289
REMARK  109  A    between atoms: _291  and  _293
REMARK  110  A    between atoms: _293  and  _294
REMARK  111  A    between atoms: _293  and  _296
REMARK  112  A    between atoms: _296  and  _297
REMARK  113  A    between atoms: _297  and  _298
REMARK                            x       y       z     vdW  Elec       q    Type
REMARK                         _______ _______ _______ _____ _____    ______ ____
ROOT
ATOM      1  CA  ALA A   1       5.226  32.528  40.166  0.00  0.00    +0.133 C 
ATOM      2  CB  ALA A   1       6.498  33.080  39.517  0.00  0.00    +0.027 C 
ENDROOT
BRANCH   1   3
ATOM      3  N   ALA A   1       4.239  32.224  39.159  0.00  0.00    -0.239 NA
ATOM      4  H   ALA A   1       4.430  32.481  38.170  0.00  0.00    +0.142 HD
ENDBRANCH   1   3
BRANCH   1   5
ATOM      5  C   ALA A   1       4.709  33.498  41.236  0.00  0.00    +0.224 C 
ATOM      6  O   ALA A   1       5.161  33.440  42.357  0.00  0.00    -0.287 OA
ENDBRANCH   1   5
TORSDOF 2
REMARK  Name = ../refined-set-2016/2fu8/2fu8_pocket.pdb
REMARK  113 active torsions:
REMARK  status: ('A' for Active; 'I' for Inactive)
REMARK    1  A    between atoms: _1  and  _3
REMARK    2  A    between atoms: _3  and  _4
REMARK    3  A    between atoms: _3  and  _6
REMARK    4  A    between atoms: _6  and  _7
REMARK    5  A    between atoms: _12  and  _13
REMARK    6  A    between atoms: _15  and  _17
REMARK    7  A    between atoms: _17  and  _18
REMARK    8  A    between atoms: _17  and  _20
REMARK    9  A    between atoms: _20  and  _21
REMARK   10  A    between atoms: _24  and  _26
REMARK   11  A    between atoms: _26  and  _27
REMARK   12  A    between atoms: _26  and  _29
REMARK   13  A    between atoms: _32  and  _34
REMARK   14  A    between atoms: _34  and  _35
REMARK   15  A    between atoms: _34  and  _37
REMARK   16  A    between atoms: _37  and  _38
REMARK   17  A    between atoms: _41  and  _43
REMARK   18  A    between atoms: _43  and  _44
REMARK   19  A    between atoms: _43  and  _46
REMARK   20  A    between atoms: _46  and  _47
REMARK   21  A    between atoms: _57  and  _59
REMARK   22  A    between atoms: _59  and  _60
REMARK   23  A    between atoms: _59  and  _62
REMARK   24  A    between atoms: _62  and  _63
REMARK   25  A    between atoms: _66  and  _68
REMARK   26  A    between atoms: _68  and  _69
REMARK   27  A    between atoms: _68  and  _71
REMARK   28  A    between atoms: _71  and  _72
REMARK   29  A    between atoms: _75  and  _77
REMARK   30  A    between atoms: _77  and  _78
REMARK   31  A    between atoms: _77  and  _80
REMARK   32  A    between atoms: _80  and  _81
REMARK   33  A    between atoms: _81  and  _82
REMARK   34  A    between atoms: _84  and  _86
REMARK   35  A    between atoms: _86  and  _87
REMARK   36  A    between atoms: _86  and  _89
REMARK   37  A    between atoms: _89  and  _90
REMARK   38  A    between atoms: _94  and  ZN_303
REMARK   39  A    between atoms: _95  and  _97
REMARK   40  A    between atoms: _97  and  _98
REMARK   41  A    between atoms: _97  and  _100
REMARK   42  A    between atoms: _100  and  _101
REMARK   43  A    between atoms: _102  and  ZN_303
REMARK   44  A    between atoms: _106  and  _108
REMARK   45  A    between atoms: _108  and  _109
REMARK   46  A    between atoms: _112  and  _114
REMARK   47  A    between atoms: _123  and  _124
REMARK   48  A    between atoms: _132  and  _134
REMARK   49  A    between atoms: _134  and  _135
REMARK   50  A    between atoms: _134  and  _137
REMARK   51  A    between atoms: _137  and  _138
REMARK   52  A    between atoms: _144  and  _146
REMARK   53  A    between atoms: _146  and  _147
REMARK   54  A    between atoms: _146  and  _149
REMARK   55  A    between atoms: _149  and  _150
REMARK   56  A    between atoms: _153  and  _155
REMARK   57  A    between atoms: _155  and  _156
REMARK   58  A    between atoms: _155  and  _158
REMARK   59  A    between atoms: _158  and  _159
REMARK   60  A    between atoms: _163  and  ZN_303
REMARK   61  A    between atoms: _164  and  _166
REMARK   62  A    between atoms: _166  and  _167
REMARK   63  A    between atoms: _166  and  _169
REMARK   64  A    between atoms: _169  and  _170
REMARK   65  A    between atoms: _173  and  _175
REMARK   66  A    between atoms: _175  and  _176
REMARK   67  A    between atoms: _175  and  _178
REMARK   68  A    between atoms: _178  and  _179
REMARK   69  A    between atoms: _182  and  _184
REMARK   70  A    between atoms: _184  and  _185
REMARK   71  A    between atoms: _184  and  _187
REMARK   72  A    between atoms: _187  and  _188
REMARK   73  A    between atoms: _190  and  _192
REMARK   74  A    between atoms: _192  and  _193
REMARK   75  A    between atoms: _192  and  _195
REMARK   76  A    between atoms: _195  and  _196
REMARK   77  A    between atoms: _199  and  _201
REMARK   78  A    between atoms: _201  and  _202
REMARK   79  A    between atoms: _201  and  _204
REMARK   80  A    between atoms: _204  and  _205
REMARK   81  A    between atoms: _207  and  _209
REMARK   82  A    between atoms: _209  and  _210
REMARK   83  A    between atoms: _214  and  _215
REMARK   84  A    between atoms: _220  and  _222
REMARK   85  A    between atoms: _222  and  _223
REMARK   86  A    between atoms: _225  and  _227
REMARK   87  A    between atoms: _227  and  _228
REMARK   88  A    between atoms: _227  and  _230
REMARK   89  A    between atoms: _230  and  _231
REMARK   90  A    between atoms: _236  and  _237
REMARK   91  A    between atoms: _239  and  _241
REMARK   92  A    between atoms: _241  and  _242
REMARK   93  A    between atoms: _241  and  _244
REMARK   94  A    between atoms: _244  and  _245
REMARK   95  A    between atoms: _250  and  _251
REMARK   96  A    between atoms: _254  and  _255
REMARK   97  A    between atoms: _260  and  _262
REMARK   98  A    between atoms: _262  and  _263
REMARK   99  A    between atoms: _262  and  _265
REMARK  100  A    between atoms: _265  and  _266
REMARK  101  A    between atoms: _270  and  ZN_304
REMARK  102  A    between atoms: _271  and  _273
REMARK  103  A    between atoms: _273  and  _274
REMARK  104  A    between atoms: _277  and  _279
REMARK  105  A    between atoms: _279  and  _280
REMARK  106  A    between atoms: _279  and  _282
REMARK  107  A    between atoms: _282  and  _283
REMARK  108  A    between atoms: _288  and  _289
REMARK  109  A    between atoms: _291  and  _293
REMARK  110  A    between atoms: _293  and  _294
REMARK  111  A    between atoms: _293  and  _296
REMARK  112  A    between atoms: _296  and  _297
REMARK  113  A    between atoms: _297  and  _298
REMARK                            x       y       z     vdW  Elec       q    Type
REMARK                         _______ _______ _______ _____ _____    ______ ____
ROOT
ATOM      1  CG  TYR A   1       7.863  36.732  44.068  0.00  0.00    -0.020 A 
ATOM      2  CD2 TYR A   1       7.850  35.453  43.504  0.00  0.00    -0.001 A 
ATOM      3  CE2 TYR A   1       8.497  35.201  42.315  0.00  0.00    +0.036 A 
ATOM      4  CZ  TYR A   1       9.177  36.220  41.656  0.00  0.00    +0.134 A 
ATOM      5  CE1 TYR A   1       9.209  37.488  42.198  0.00  0.00    +0.036 A 
ATOM      6  CD1 TYR A   1       8.555  37.736  43.401  0.00  0.00    -0.001 A 
ENDROOT
BRANCH   4   7
ATOM      7  OH  TYR A   1       9.856  35.946  40.457  0.00  0.00    -0.506 OA
ATOM      8  HH  TYR A   1       9.727  34.994  40.216  0.00  0.00    +0.292 HD
ENDBRANCH   4   7
BRANCH   1   9
ATOM      9  CB  TYR A   1       7.122  37.034  45.352  0.00  0.00    +0.051 C 
BRANCH   9  10
ATOM     10  CA  TYR A   1       7.363  36.099  46.492  0.00  0.00    +0.137 C 
BRANCH  10  11
ATOM     11  N   TYR A   1       6.702  36.615  47.684  0.00  0.00    -0.239 NA
ATOM     12  H   TYR A   1       6.227  37.540  47.649  0.00  0.00    +0.142 HD
ENDBRANCH  10  11
BRANCH  10  13
ATOM     13  C   TYR A   1       8.862  35.923  46.750  0.00  0.00    +0.224 C 
ATOM     14  O   TYR A   1       9.442  34.879  46.423  0.00  0.00    -0.287 OA
ENDBRANCH  10  13
ENDBRANCH   9  10
ENDBRANCH   1   9
TORSDOF 5
REMARK  Name = ../refined-set-2016/2fu8/2fu8_pocket.pdb
REMARK  113 active torsions:
REMARK  status: ('A' for Active; 'I' for Inactive)
REMARK    1  A    between atoms: _1  and  _3
REMARK    2  A    between atoms: _3  and  _4
REMARK    3  A    between atoms: _3  and  _6
REMARK    4  A    between atoms: _6  and  _7
REMARK    5  A    between atoms: _12  and  _13
REMARK    6  A    between atoms: _15  and  _17
REMARK    7  A    between atoms: _17  and  _18
REMARK    8  A    between atoms: _17  and  _20
REMARK    9  A    between atoms: _20  and  _21
REMARK   10  A    between atoms: _24  and  _26
REMARK   11  A    between atoms: _26  and  _27
REMARK   12  A    between atoms: _26  and  _29
REMARK   13  A    between atoms: _32  and  _34
REMARK   14  A    between atoms: _34  and  _35
REMARK   15  A    between atoms: _34  and  _37
REMARK   16  A    between atoms: _37  and  _38
REMARK   17  A    between atoms: _41  and  _43
REMARK   18  A    between atoms: _43  and  _44
REMARK   19  A    between atoms: _43  and  _46
REMARK   20  A    between atoms: _46  and  _47
REMARK   21  A    between atoms: _57  and  _59
REMARK   22  A    between atoms: _59  and  _60
REMARK   23  A    between atoms: _59  and  _62
REMARK   24  A    between atoms: _62  and  _63
REMARK   25  A    between atoms: _66  and  _68
REMARK   26  A    between atoms: _68  and  _69
REMARK   27  A    between atoms: _68  and  _71
REMARK   28  A    between atoms: _71  and  _72
REMARK   29  A    between atoms: _75  and  _77
REMARK   30  A    between atoms: _77  and  _78
REMARK   31  A    between atoms: _77  and  _80
REMARK   32  A    between atoms: _80  and  _81
REMARK   33  A    between atoms: _81  and  _82
REMARK   34  A    between atoms: _84  and  _86
REMARK   35  A    between atoms: _86  and  _87
REMARK   36  A    between atoms: _86  and  _89
REMARK   37  A    between atoms: _89  and  _90
REMARK   38  A    between atoms: _94  and  ZN_303
REMARK   39  A    between atoms: _95  and  _97
REMARK   40  A    between atoms: _97  and  _98
REMARK   41  A    between atoms: _97  and  _100
REMARK   42  A    between atoms: _100  and  _101
REMARK   43  A    between atoms: _102  and  ZN_303
REMARK   44  A    between atoms: _106  and  _108
REMARK   45  A    between atoms: _108  and  _109
REMARK   46  A    between atoms: _112  and  _114
REMARK   47  A    between atoms: _123  and  _124
REMARK   48  A    between atoms: _132  and  _134
REMARK   49  A    between atoms: _134  and  _135
REMARK   50  A    between atoms: _134  and  _137
REMARK   51  A    between atoms: _137  and  _138
REMARK   52  A    between atoms: _144  and  _146
REMARK   53  A    between atoms: _146  and  _147
REMARK   54  A    between atoms: _146  and  _149
REMARK   55  A    between atoms: _149  and  _150
REMARK   56  A    between atoms: _153  and  _155
REMARK   57  A    between atoms: _155  and  _156
REMARK   58  A    between atoms: _155  and  _158
REMARK   59  A    between atoms: _158  and  _159
REMARK   60  A    between atoms: _163  and  ZN_303
REMARK   61  A    between atoms: _164  and  _166
REMARK   62  A    between atoms: _166  and  _167
REMARK   63  A    between atoms: _166  and  _169
REMARK   64  A    between atoms: _169  and  _170
REMARK   65  A    between atoms: _173  and  _175
REMARK   66  A    between atoms: _175  and  _176
REMARK   67  A    between atoms: _175  and  _178
REMARK   68  A    between atoms: _178  and  _179
REMARK   69  A    between atoms: _182  and  _184
REMARK   70  A    between atoms: _184  and  _185
REMARK   71  A    between atoms: _184  and  _187
REMARK   72  A    between atoms: _187  and  _188
REMARK   73  A    between atoms: _190  and  _192
REMARK   74  A    between atoms: _192  and  _193
REMARK   75  A    between atoms: _192  and  _195
REMARK   76  A    between atoms: _195  and  _196
REMARK   77  A    between atoms: _199  and  _201
REMARK   78  A    between atoms: _201  and  _202
REMARK   79  A    between atoms: _201  and  _204
REMARK   80  A    between atoms: _204  and  _205
REMARK   81  A    between atoms: _207  and  _209
REMARK   82  A    between atoms: _209  and  _210
REMARK   83  A    between atoms: _214  and  _215
REMARK   84  A    between atoms: _220  and  _222
REMARK   85  A    between atoms: _222  and  _223
REMARK   86  A    between atoms: _225  and  _227
REMARK   87  A    between atoms: _227  and  _228
REMARK   88  A    between atoms: _227  and  _230
REMARK   89  A    between atoms: _230  and  _231
REMARK   90  A    between atoms: _236  and  _237
REMARK   91  A    between atoms: _239  and  _241
REMARK   92  A    between atoms: _241  and  _242
REMARK   93  A    between atoms: _241  and  _244
REMARK   94  A    between atoms: _244  and  _245
REMARK   95  A    between atoms: _250  and  _251
REMARK   96  A    between atoms: _254  and  _255
REMARK   97  A    between atoms: _260  and  _262
REMARK   98  A    between atoms: _262  and  _263
REMARK   99  A    between atoms: _262  and  _265
REMARK  100  A    between atoms: _265  and  _266
REMARK  101  A    between atoms: _270  and  ZN_304
REMARK  102  A    between atoms: _271  and  _273
REMARK  103  A    between atoms: _273  and  _274
REMARK  104  A    between atoms: _277  and  _279
REMARK  105  A    between atoms: _279  and  _280
REMARK  106  A    between atoms: _279  and  _282
REMARK  107  A    between atoms: _282  and  _283
REMARK  108  A    between atoms: _288  and  _289
REMARK  109  A    between atoms: _291  and  _293
REMARK  110  A    between atoms: _293  and  _294
REMARK  111  A    between atoms: _293  and  _296
REMARK  112  A    between atoms: _296  and  _297
REMARK  113  A    between atoms: _297  and  _298
REMARK                            x       y       z     vdW  Elec       q    Type
REMARK                         _______ _______ _______ _____ _____    ______ ____
ROOT
ATOM      1  CB  GLN A   1      18.065  24.912  44.353  0.00  0.00    +0.035 C 
ENDROOT
BRANCH   1   2
ATOM      2  CA  GLN A   1      18.353  23.931  45.499  0.00  0.00    +0.134 C 
BRANCH   2   3
ATOM      3  N   GLN A   1      17.601  24.292  46.689  0.00  0.00    -0.239 NA
ATOM      4  H   GLN A   1      17.091  25.198  46.709  0.00  0.00    +0.142 HD
ENDBRANCH   2   3
BRANCH   2   5
ATOM      5  C   GLN A   1      19.855  23.901  45.830  0.00  0.00    +0.224 C 
ATOM      6  O   GLN A   1      20.559  23.001  45.369  0.00  0.00    -0.287 OA
ENDBRANCH   2   5
ENDBRANCH   1   2
BRANCH   1   7
ATOM      7  CG  GLN A   1      18.708  24.521  43.031  0.00  0.00    +0.087 C 
BRANCH   7   8
ATOM      8  CD  GLN A   1      18.317  25.447  41.883  0.00  0.00    +0.219 C 
ATOM      9  OE1 GLN A   1      17.236  26.047  41.905  0.00  0.00    -0.275 OA
ATOM     10  NE2 GLN A   1      19.186  25.554  40.877  0.00  0.00    -0.329 N 
ATOM     11 HE21 GLN A   1      20.083  25.028  40.906  0.00  0.00    +0.145 HD
ATOM     12 HE22 GLN A   1      18.967  26.163  40.063  0.00  0.00    +0.145 HD
ENDBRANCH   7   8
ENDBRANCH   1   7
TORSDOF 5
REMARK  Name = ../refined-set-2016/2fu8/2fu8_pocket.pdb
REMARK  113 active torsions:
REMARK  status: ('A' for Active; 'I' for Inactive)
REMARK    1  A    between atoms: _1  and  _3
REMARK    2  A    between atoms: _3  and  _4
REMARK    3  A    between atoms: _3  and  _6
REMARK    4  A    between atoms: _6  and  _7
REMARK    5  A    between atoms: _12  and  _13
REMARK    6  A    between atoms: _15  and  _17
REMARK    7  A    between atoms: _17  and  _18
REMARK    8  A    between atoms: _17  and  _20
REMARK    9  A    between atoms: _20  and  _21
REMARK   10  A    between atoms: _24  and  _26
REMARK   11  A    between atoms: _26  and  _27
REMARK   12  A    between atoms: _26  and  _29
REMARK   13  A    between atoms: _32  and  _34
REMARK   14  A    between atoms: _34  and  _35
REMARK   15  A    between atoms: _34  and  _37
REMARK   16  A    between atoms: _37  and  _38
REMARK   17  A    between atoms: _41  and  _43
REMARK   18  A    between atoms: _43  and  _44
REMARK   19  A    between atoms: _43  and  _46
REMARK   20  A    between atoms: _46  and  _47
REMARK   21  A    between atoms: _57  and  _59
REMARK   22  A    between atoms: _59  and  _60
REMARK   23  A    between atoms: _59  and  _62
REMARK   24  A    between atoms: _62  and  _63
REMARK   25  A    between atoms: _66  and  _68
REMARK   26  A    between atoms: _68  and  _69
REMARK   27  A    between atoms: _68  and  _71
REMARK   28  A    between atoms: _71  and  _72
REMARK   29  A    between atoms: _75  and  _77
REMARK   30  A    between atoms: _77  and  _78
REMARK   31  A    between atoms: _77  and  _80
REMARK   32  A    between atoms: _80  and  _81
REMARK   33  A    between atoms: _81  and  _82
REMARK   34  A    between atoms: _84  and  _86
REMARK   35  A    between atoms: _86  and  _87
REMARK   36  A    between atoms: _86  and  _89
REMARK   37  A    between atoms: _89  and  _90
REMARK   38  A    between atoms: _94  and  ZN_303
REMARK   39  A    between atoms: _95  and  _97
REMARK   40  A    between atoms: _97  and  _98
REMARK   41  A    between atoms: _97  and  _100
REMARK   42  A    between atoms: _100  and  _101
REMARK   43  A    between atoms: _102  and  ZN_303
REMARK   44  A    between atoms: _106  and  _108
REMARK   45  A    between atoms: _108  and  _109
REMARK   46  A    between atoms: _112  and  _114
REMARK   47  A    between atoms: _123  and  _124
REMARK   48  A    between atoms: _132  and  _134
REMARK   49  A    between atoms: _134  and  _135
REMARK   50  A    between atoms: _134  and  _137
REMARK   51  A    between atoms: _137  and  _138
REMARK   52  A    between atoms: _144  and  _146
REMARK   53  A    between atoms: _146  and  _147
REMARK   54  A    between atoms: _146  and  _149
REMARK   55  A    between atoms: _149  and  _150
REMARK   56  A    between atoms: _153  and  _155
REMARK   57  A    between atoms: _155  and  _156
REMARK   58  A    between atoms: _155  and  _158
REMARK   59  A    between atoms: _158  and  _159
REMARK   60  A    between atoms: _163  and  ZN_303
REMARK   61  A    between atoms: _164  and  _166
REMARK   62  A    between atoms: _166  and  _167
REMARK   63  A    between atoms: _166  and  _169
REMARK   64  A    between atoms: _169  and  _170
REMARK   65  A    between atoms: _173  and  _175
REMARK   66  A    between atoms: _175  and  _176
REMARK   67  A    between atoms: _175  and  _178
REMARK   68  A    between atoms: _178  and  _179
REMARK   69  A    between atoms: _182  and  _184
REMARK   70  A    between atoms: _184  and  _185
REMARK   71  A    between atoms: _184  and  _187
REMARK   72  A    between atoms: _187  and  _188
REMARK   73  A    between atoms: _190  and  _192
REMARK   74  A    between atoms: _192  and  _193
REMARK   75  A    between atoms: _192  and  _195
REMARK   76  A    between atoms: _195  and  _196
REMARK   77  A    between atoms: _199  and  _201
REMARK   78  A    between atoms: _201  and  _202
REMARK   79  A    between atoms: _201  and  _204
REMARK   80  A    between atoms: _204  and  _205
REMARK   81  A    between atoms: _207  and  _209
REMARK   82  A    between atoms: _209  and  _210
REMARK   83  A    between atoms: _214  and  _215
REMARK   84  A    between atoms: _220  and  _222
REMARK   85  A    between atoms: _222  and  _223
REMARK   86  A    between atoms: _225  and  _227
REMARK   87  A    between atoms: _227  and  _228
REMARK   88  A    between atoms: _227  and  _230
REMARK   89  A    between atoms: _230  and  _231
REMARK   90  A    between atoms: _236  and  _237
REMARK   91  A    between atoms: _239  and  _241
REMARK   92  A    between atoms: _241  and  _242
REMARK   93  A    between atoms: _241  and  _244
REMARK   94  A    between atoms: _244  and  _245
REMARK   95  A    between atoms: _250  and  _251
REMARK   96  A    between atoms: _254  and  _255
REMARK   97  A    between atoms: _260  and  _262
REMARK   98  A    between atoms: _262  and  _263
REMARK   99  A    between atoms: _262  and  _265
REMARK  100  A    between atoms: _265  and  _266
REMARK  101  A    between atoms: _270  and  ZN_304
REMARK  102  A    between atoms: _271  and  _273
REMARK  103  A    between atoms: _273  and  _274
REMARK  104  A    between atoms: _277  and  _279
REMARK  105  A    between atoms: _279  and  _280
REMARK  106  A    between atoms: _279  and  _282
REMARK  107  A    between atoms: _282  and  _283
REMARK  108  A    between atoms: _288  and  _289
REMARK  109  A    between atoms: _291  and  _293
REMARK  110  A    between atoms: _293  and  _294
REMARK  111  A    between atoms: _293  and  _296
REMARK  112  A    between atoms: _296  and  _297
REMARK  113  A    between atoms: _297  and  _298
REMARK                            x       y       z     vdW  Elec       q    Type
REMARK                         _______ _______ _______ _____ _____    ______ ____
ROOT
ATOM      1  O   HOH     1      20.129  31.904  31.976  0.00  0.00    +0.000 OA
ENDROOT
TORSDOF 0
REMARK  Name = ../refined-set-2016/2fu8/2fu8_pocket.pdb
REMARK  113 active torsions:
REMARK  status: ('A' for Active; 'I' for Inactive)
REMARK    1  A    between atoms: _1  and  _3
REMARK    2  A    between atoms: _3  and  _4
REMARK    3  A    between atoms: _3  and  _6
REMARK    4  A    between atoms: _6  and  _7
REMARK    5  A    between atoms: _12  and  _13
REMARK    6  A    between atoms: _15  and  _17
REMARK    7  A    between atoms: _17  and  _18
REMARK    8  A    between atoms: _17  and  _20
REMARK    9  A    between atoms: _20  and  _21
REMARK   10  A    between atoms: _24  and  _26
REMARK   11  A    between atoms: _26  and  _27
REMARK   12  A    between atoms: _26  and  _29
REMARK   13  A    between atoms: _32  and  _34
REMARK   14  A    between atoms: _34  and  _35
REMARK   15  A    between atoms: _34  and  _37
REMARK   16  A    between atoms: _37  and  _38
REMARK   17  A    between atoms: _41  and  _43
REMARK   18  A    between atoms: _43  and  _44
REMARK   19  A    between atoms: _43  and  _46
REMARK   20  A    between atoms: _46  and  _47
REMARK   21  A    between atoms: _57  and  _59
REMARK   22  A    between atoms: _59  and  _60
REMARK   23  A    between atoms: _59  and  _62
REMARK   24  A    between atoms: _62  and  _63
REMARK   25  A    between atoms: _66  and  _68
REMARK   26  A    between atoms: _68  and  _69
REMARK   27  A    between atoms: _68  and  _71
REMARK   28  A    between atoms: _71  and  _72
REMARK   29  A    between atoms: _75  and  _77
REMARK   30  A    between atoms: _77  and  _78
REMARK   31  A    between atoms: _77  and  _80
REMARK   32  A    between atoms: _80  and  _81
REMARK   33  A    between atoms: _81  and  _82
REMARK   34  A    between atoms: _84  and  _86
REMARK   35  A    between atoms: _86  and  _87
REMARK   36  A    between atoms: _86  and  _89
REMARK   37  A    between atoms: _89  and  _90
REMARK   38  A    between atoms: _94  and  ZN_303
REMARK   39  A    between atoms: _95  and  _97
REMARK   40  A    between atoms: _97  and  _98
REMARK   41  A    between atoms: _97  and  _100
REMARK   42  A    between atoms: _100  and  _101
REMARK   43  A    between atoms: _102  and  ZN_303
REMARK   44  A    between atoms: _106  and  _108
REMARK   45  A    between atoms: _108  and  _109
REMARK   46  A    between atoms: _112  and  _114
REMARK   47  A    between atoms: _123  and  _124
REMARK   48  A    between atoms: _132  and  _134
REMARK   49  A    between atoms: _134  and  _135
REMARK   50  A    between atoms: _134  and  _137
REMARK   51  A    between atoms: _137  and  _138
REMARK   52  A    between atoms: _144  and  _146
REMARK   53  A    between atoms: _146  and  _147
REMARK   54  A    between atoms: _146  and  _149
REMARK   55  A    between atoms: _149  and  _150
REMARK   56  A    between atoms: _153  and  _155
REMARK   57  A    between atoms: _155  and  _156
REMARK   58  A    between atoms: _155  and  _158
REMARK   59  A    between atoms: _158  and  _159
REMARK   60  A    between atoms: _163  and  ZN_303
REMARK   61  A    between atoms: _164  and  _166
REMARK   62  A    between atoms: _166  and  _167
REMARK   63  A    between atoms: _166  and  _169
REMARK   64  A    between atoms: _169  and  _170
REMARK   65  A    between atoms: _173  and  _175
REMARK   66  A    between atoms: _175  and  _176
REMARK   67  A    between atoms: _175  and  _178
REMARK   68  A    between atoms: _178  and  _179
REMARK   69  A    between atoms: _182  and  _184
REMARK   70  A    between atoms: _184  and  _185
REMARK   71  A    between atoms: _184  and  _187
REMARK   72  A    between atoms: _187  and  _188
REMARK   73  A    between atoms: _190  and  _192
REMARK   74  A    between atoms: _192  and  _193
REMARK   75  A    between atoms: _192  and  _195
REMARK   76  A    between atoms: _195  and  _196
REMARK   77  A    between atoms: _199  and  _201
REMARK   78  A    between atoms: _201  and  _202
REMARK   79  A    between atoms: _201  and  _204
REMARK   80  A    between atoms: _204  and  _205
REMARK   81  A    between atoms: _207  and  _209
REMARK   82  A    between atoms: _209  and  _210
REMARK   83  A    between atoms: _214  and  _215
REMARK   84  A    between atoms: _220  and  _222
REMARK   85  A    between atoms: _222  and  _223
REMARK   86  A    between atoms: _225  and  _227
REMARK   87  A    between atoms: _227  and  _228
REMARK   88  A    between atoms: _227  and  _230
REMARK   89  A    between atoms: _230  and  _231
REMARK   90  A    between atoms: _236  and  _237
REMARK   91  A    between atoms: _239  and  _241
REMARK   92  A    between atoms: _241  and  _242
REMARK   93  A    between atoms: _241  and  _244
REMARK   94  A    between atoms: _244  and  _245
REMARK   95  A    between atoms: _250  and  _251
REMARK   96  A    between atoms: _254  and  _255
REMARK   97  A    between atoms: _260  and  _262
REMARK   98  A    between atoms: _262  and  _263
REMARK   99  A    between atoms: _262  and  _265
REMARK  100  A    between atoms: _265  and  _266
REMARK  101  A    between atoms: _270  and  ZN_304
REMARK  102  A    between atoms: _271  and  _273
REMARK  103  A    between atoms: _273  and  _274
REMARK  104  A    between atoms: _277  and  _279
REMARK  105  A    between atoms: _279  and  _280
REMARK  106  A    between atoms: _279  and  _282
REMARK  107  A    between atoms: _282  and  _283
REMARK  108  A    between atoms: _288  and  _289
REMARK  109  A    between atoms: _291  and  _293
REMARK  110  A    between atoms: _293  and  _294
REMARK  111  A    between atoms: _293  and  _296
REMARK  112  A    between atoms: _296  and  _297
REMARK  113  A    between atoms: _297  and  _298
REMARK                            x       y       z     vdW  Elec       q    Type
REMARK                         _______ _______ _______ _____ _____    ______ ____
ROOT
ATOM      1  O   HOH     1      16.907  32.664  25.781  0.00  0.00    +0.000 OA
ENDROOT
TORSDOF 0
REMARK  Name = ../refined-set-2016/2fu8/2fu8_pocket.pdb
REMARK  113 active torsions:
REMARK  status: ('A' for Active; 'I' for Inactive)
REMARK    1  A    between atoms: _1  and  _3
REMARK    2  A    between atoms: _3  and  _4
REMARK    3  A    between atoms: _3  and  _6
REMARK    4  A    between atoms: _6  and  _7
REMARK    5  A    between atoms: _12  and  _13
REMARK    6  A    between atoms: _15  and  _17
REMARK    7  A    between atoms: _17  and  _18
REMARK    8  A    between atoms: _17  and  _20
REMARK    9  A    between atoms: _20  and  _21
REMARK   10  A    between atoms: _24  and  _26
REMARK   11  A    between atoms: _26  and  _27
REMARK   12  A    between atoms: _26  and  _29
REMARK   13  A    between atoms: _32  and  _34
REMARK   14  A    between atoms: _34  and  _35
REMARK   15  A    between atoms: _34  and  _37
REMARK   16  A    between atoms: _37  and  _38
REMARK   17  A    between atoms: _41  and  _43
REMARK   18  A    between atoms: _43  and  _44
REMARK   19  A    between atoms: _43  and  _46
REMARK   20  A    between atoms: _46  and  _47
REMARK   21  A    between atoms: _57  and  _59
REMARK   22  A    between atoms: _59  and  _60
REMARK   23  A    between atoms: _59  and  _62
REMARK   24  A    between atoms: _62  and  _63
REMARK   25  A    between atoms: _66  and  _68
REMARK   26  A    between atoms: _68  and  _69
REMARK   27  A    between atoms: _68  and  _71
REMARK   28  A    between atoms: _71  and  _72
REMARK   29  A    between atoms: _75  and  _77
REMARK   30  A    between atoms: _77  and  _78
REMARK   31  A    between atoms: _77  and  _80
REMARK   32  A    between atoms: _80  and  _81
REMARK   33  A    between atoms: _81  and  _82
REMARK   34  A    between atoms: _84  and  _86
REMARK   35  A    between atoms: _86  and  _87
REMARK   36  A    between atoms: _86  and  _89
REMARK   37  A    between atoms: _89  and  _90
REMARK   38  A    between atoms: _94  and  ZN_303
REMARK   39  A    between atoms: _95  and  _97
REMARK   40  A    between atoms: _97  and  _98
REMARK   41  A    between atoms: _97  and  _100
REMARK   42  A    between atoms: _100  and  _101
REMARK   43  A    between atoms: _102  and  ZN_303
REMARK   44  A    between atoms: _106  and  _108
REMARK   45  A    between atoms: _108  and  _109
REMARK   46  A    between atoms: _112  and  _114
REMARK   47  A    between atoms: _123  and  _124
REMARK   48  A    between atoms: _132  and  _134
REMARK   49  A    between atoms: _134  and  _135
REMARK   50  A    between atoms: _134  and  _137
REMARK   51  A    between atoms: _137  and  _138
REMARK   52  A    between atoms: _144  and  _146
REMARK   53  A    between atoms: _146  and  _147
REMARK   54  A    between atoms: _146  and  _149
REMARK   55  A    between atoms: _149  and  _150
REMARK   56  A    between atoms: _153  and  _155
REMARK   57  A    between atoms: _155  and  _156
REMARK   58  A    between atoms: _155  and  _158
REMARK   59  A    between atoms: _158  and  _159
REMARK   60  A    between atoms: _163  and  ZN_303
REMARK   61  A    between atoms: _164  and  _166
REMARK   62  A    between atoms: _166  and  _167
REMARK   63  A    between atoms: _166  and  _169
REMARK   64  A    between atoms: _169  and  _170
REMARK   65  A    between atoms: _173  and  _175
REMARK   66  A    between atoms: _175  and  _176
REMARK   67  A    between atoms: _175  and  _178
REMARK   68  A    between atoms: _178  and  _179
REMARK   69  A    between atoms: _182  and  _184
REMARK   70  A    between atoms: _184  and  _185
REMARK   71  A    between atoms: _184  and  _187
REMARK   72  A    between atoms: _187  and  _188
REMARK   73  A    between atoms: _190  and  _192
REMARK   74  A    between atoms: _192  and  _193
REMARK   75  A    between atoms: _192  and  _195
REMARK   76  A    between atoms: _195  and  _196
REMARK   77  A    between atoms: _199  and  _201
REMARK   78  A    between atoms: _201  and  _202
REMARK   79  A    between atoms: _201  and  _204
REMARK   80  A    between atoms: _204  and  _205
REMARK   81  A    between atoms: _207  and  _209
REMARK   82  A    between atoms: _209  and  _210
REMARK   83  A    between atoms: _214  and  _215
REMARK   84  A    between atoms: _220  and  _222
REMARK   85  A    between atoms: _222  and  _223
REMARK   86  A    between atoms: _225  and  _227
REMARK   87  A    between atoms: _227  and  _228
REMARK   88  A    between atoms: _227  and  _230
REMARK   89  A    between atoms: _230  and  _231
REMARK   90  A    between atoms: _236  and  _237
REMARK   91  A    between atoms: _239  and  _241
REMARK   92  A    between atoms: _241  and  _242
REMARK   93  A    between atoms: _241  and  _244
REMARK   94  A    between atoms: _244  and  _245
REMARK   95  A    between atoms: _250  and  _251
REMARK   96  A    between atoms: _254  and  _255
REMARK   97  A    between atoms: _260  and  _262
REMARK   98  A    between atoms: _262  and  _263
REMARK   99  A    between atoms: _262  and  _265
REMARK  100  A    between atoms: _265  and  _266
REMARK  101  A    between atoms: _270  and  ZN_304
REMARK  102  A    between atoms: _271  and  _273
REMARK  103  A    between atoms: _273  and  _274
REMARK  104  A    between atoms: _277  and  _279
REMARK  105  A    between atoms: _279  and  _280
REMARK  106  A    between atoms: _279  and  _282
REMARK  107  A    between atoms: _282  and  _283
REMARK  108  A    between atoms: _288  and  _289
REMARK  109  A    between atoms: _291  and  _293
REMARK  110  A    between atoms: _293  and  _294
REMARK  111  A    between atoms: _293  and  _296
REMARK  112  A    between atoms: _296  and  _297
REMARK  113  A    between atoms: _297  and  _298
REMARK                            x       y       z     vdW  Elec       q    Type
REMARK                         _______ _______ _______ _____ _____    ______ ____
ROOT
ATOM      1  O   HOH     1       8.566  34.775  36.523  0.00  0.00    +0.000 OA
ENDROOT
TORSDOF 0
REMARK  Name = ../refined-set-2016/2fu8/2fu8_pocket.pdb
REMARK  113 active torsions:
REMARK  status: ('A' for Active; 'I' for Inactive)
REMARK    1  A    between atoms: _1  and  _3
REMARK    2  A    between atoms: _3  and  _4
REMARK    3  A    between atoms: _3  and  _6
REMARK    4  A    between atoms: _6  and  _7
REMARK    5  A    between atoms: _12  and  _13
REMARK    6  A    between atoms: _15  and  _17
REMARK    7  A    between atoms: _17  and  _18
REMARK    8  A    between atoms: _17  and  _20
REMARK    9  A    between atoms: _20  and  _21
REMARK   10  A    between atoms: _24  and  _26
REMARK   11  A    between atoms: _26  and  _27
REMARK   12  A    between atoms: _26  and  _29
REMARK   13  A    between atoms: _32  and  _34
REMARK   14  A    between atoms: _34  and  _35
REMARK   15  A    between atoms: _34  and  _37
REMARK   16  A    between atoms: _37  and  _38
REMARK   17  A    between atoms: _41  and  _43
REMARK   18  A    between atoms: _43  and  _44
REMARK   19  A    between atoms: _43  and  _46
REMARK   20  A    between atoms: _46  and  _47
REMARK   21  A    between atoms: _57  and  _59
REMARK   22  A    between atoms: _59  and  _60
REMARK   23  A    between atoms: _59  and  _62
REMARK   24  A    between atoms: _62  and  _63
REMARK   25  A    between atoms: _66  and  _68
REMARK   26  A    between atoms: _68  and  _69
REMARK   27  A    between atoms: _68  and  _71
REMARK   28  A    between atoms: _71  and  _72
REMARK   29  A    between atoms: _75  and  _77
REMARK   30  A    between atoms: _77  and  _78
REMARK   31  A    between atoms: _77  and  _80
REMARK   32  A    between atoms: _80  and  _81
REMARK   33  A    between atoms: _81  and  _82
REMARK   34  A    between atoms: _84  and  _86
REMARK   35  A    between atoms: _86  and  _87
REMARK   36  A    between atoms: _86  and  _89
REMARK   37  A    between atoms: _89  and  _90
REMARK   38  A    between atoms: _94  and  ZN_303
REMARK   39  A    between atoms: _95  and  _97
REMARK   40  A    between atoms: _97  and  _98
REMARK   41  A    between atoms: _97  and  _100
REMARK   42  A    between atoms: _100  and  _101
REMARK   43  A    between atoms: _102  and  ZN_303
REMARK   44  A    between atoms: _106  and  _108
REMARK   45  A    between atoms: _108  and  _109
REMARK   46  A    between atoms: _112  and  _114
REMARK   47  A    between atoms: _123  and  _124
REMARK   48  A    between atoms: _132  and  _134
REMARK   49  A    between atoms: _134  and  _135
REMARK   50  A    between atoms: _134  and  _137
REMARK   51  A    between atoms: _137  and  _138
REMARK   52  A    between atoms: _144  and  _146
REMARK   53  A    between atoms: _146  and  _147
REMARK   54  A    between atoms: _146  and  _149
REMARK   55  A    between atoms: _149  and  _150
REMARK   56  A    between atoms: _153  and  _155
REMARK   57  A    between atoms: _155  and  _156
REMARK   58  A    between atoms: _155  and  _158
REMARK   59  A    between atoms: _158  and  _159
REMARK   60  A    between atoms: _163  and  ZN_303
REMARK   61  A    between atoms: _164  and  _166
REMARK   62  A    between atoms: _166  and  _167
REMARK   63  A    between atoms: _166  and  _169
REMARK   64  A    between atoms: _169  and  _170
REMARK   65  A    between atoms: _173  and  _175
REMARK   66  A    between atoms: _175  and  _176
REMARK   67  A    between atoms: _175  and  _178
REMARK   68  A    between atoms: _178  and  _179
REMARK   69  A    between atoms: _182  and  _184
REMARK   70  A    between atoms: _184  and  _185
REMARK   71  A    between atoms: _184  and  _187
REMARK   72  A    between atoms: _187  and  _188
REMARK   73  A    between atoms: _190  and  _192
REMARK   74  A    between atoms: _192  and  _193
REMARK   75  A    between atoms: _192  and  _195
REMARK   76  A    between atoms: _195  and  _196
REMARK   77  A    between atoms: _199  and  _201
REMARK   78  A    between atoms: _201  and  _202
REMARK   79  A    between atoms: _201  and  _204
REMARK   80  A    between atoms: _204  and  _205
REMARK   81  A    between atoms: _207  and  _209
REMARK   82  A    between atoms: _209  and  _210
REMARK   83  A    between atoms: _214  and  _215
REMARK   84  A    between atoms: _220  and  _222
REMARK   85  A    between atoms: _222  and  _223
REMARK   86  A    between atoms: _225  and  _227
REMARK   87  A    between atoms: _227  and  _228
REMARK   88  A    between atoms: _227  and  _230
REMARK   89  A    between atoms: _230  and  _231
REMARK   90  A    between atoms: _236  and  _237
REMARK   91  A    between atoms: _239  and  _241
REMARK   92  A    between atoms: _241  and  _242
REMARK   93  A    between atoms: _241  and  _244
REMARK   94  A    between atoms: _244  and  _245
REMARK   95  A    between atoms: _250  and  _251
REMARK   96  A    between atoms: _254  and  _255
REMARK   97  A    between atoms: _260  and  _262
REMARK   98  A    between atoms: _262  and  _263
REMARK   99  A    between atoms: _262  and  _265
REMARK  100  A    between atoms: _265  and  _266
REMARK  101  A    between atoms: _270  and  ZN_304
REMARK  102  A    between atoms: _271  and  _273
REMARK  103  A    between atoms: _273  and  _274
REMARK  104  A    between atoms: _277  and  _279
REMARK  105  A    between atoms: _279  and  _280
REMARK  106  A    between atoms: _279  and  _282
REMARK  107  A    between atoms: _282  and  _283
REMARK  108  A    between atoms: _288  and  _289
REMARK  109  A    between atoms: _291  and  _293
REMARK  110  A    between atoms: _293  and  _294
REMARK  111  A    between atoms: _293  and  _296
REMARK  112  A    between atoms: _296  and  _297
REMARK  113  A    between atoms: _297  and  _298
REMARK                            x       y       z     vdW  Elec       q    Type
REMARK                         _______ _______ _______ _____ _____    ______ ____
ROOT
ATOM      1  O   HOH     1       4.249  30.301  32.835  0.00  0.00    +0.000 OA
ENDROOT
TORSDOF 0
REMARK  Name = ../refined-set-2016/2fu8/2fu8_pocket.pdb
REMARK  113 active torsions:
REMARK  status: ('A' for Active; 'I' for Inactive)
REMARK    1  A    between atoms: _1  and  _3
REMARK    2  A    between atoms: _3  and  _4
REMARK    3  A    between atoms: _3  and  _6
REMARK    4  A    between atoms: _6  and  _7
REMARK    5  A    between atoms: _12  and  _13
REMARK    6  A    between atoms: _15  and  _17
REMARK    7  A    between atoms: _17  and  _18
REMARK    8  A    between atoms: _17  and  _20
REMARK    9  A    between atoms: _20  and  _21
REMARK   10  A    between atoms: _24  and  _26
REMARK   11  A    between atoms: _26  and  _27
REMARK   12  A    between atoms: _26  and  _29
REMARK   13  A    between atoms: _32  and  _34
REMARK   14  A    between atoms: _34  and  _35
REMARK   15  A    between atoms: _34  and  _37
REMARK   16  A    between atoms: _37  and  _38
REMARK   17  A    between atoms: _41  and  _43
REMARK   18  A    between atoms: _43  and  _44
REMARK   19  A    between atoms: _43  and  _46
REMARK   20  A    between atoms: _46  and  _47
REMARK   21  A    between atoms: _57  and  _59
REMARK   22  A    between atoms: _59  and  _60
REMARK   23  A    between atoms: _59  and  _62
REMARK   24  A    between atoms: _62  and  _63
REMARK   25  A    between atoms: _66  and  _68
REMARK   26  A    between atoms: _68  and  _69
REMARK   27  A    between atoms: _68  and  _71
REMARK   28  A    between atoms: _71  and  _72
REMARK   29  A    between atoms: _75  and  _77
REMARK   30  A    between atoms: _77  and  _78
REMARK   31  A    between atoms: _77  and  _80
REMARK   32  A    between atoms: _80  and  _81
REMARK   33  A    between atoms: _81  and  _82
REMARK   34  A    between atoms: _84  and  _86
REMARK   35  A    between atoms: _86  and  _87
REMARK   36  A    between atoms: _86  and  _89
REMARK   37  A    between atoms: _89  and  _90
REMARK   38  A    between atoms: _94  and  ZN_303
REMARK   39  A    between atoms: _95  and  _97
REMARK   40  A    between atoms: _97  and  _98
REMARK   41  A    between atoms: _97  and  _100
REMARK   42  A    between atoms: _100  and  _101
REMARK   43  A    between atoms: _102  and  ZN_303
REMARK   44  A    between atoms: _106  and  _108
REMARK   45  A    between atoms: _108  and  _109
REMARK   46  A    between atoms: _112  and  _114
REMARK   47  A    between atoms: _123  and  _124
REMARK   48  A    between atoms: _132  and  _134
REMARK   49  A    between atoms: _134  and  _135
REMARK   50  A    between atoms: _134  and  _137
REMARK   51  A    between atoms: _137  and  _138
REMARK   52  A    between atoms: _144  and  _146
REMARK   53  A    between atoms: _146  and  _147
REMARK   54  A    between atoms: _146  and  _149
REMARK   55  A    between atoms: _149  and  _150
REMARK   56  A    between atoms: _153  and  _155
REMARK   57  A    between atoms: _155  and  _156
REMARK   58  A    between atoms: _155  and  _158
REMARK   59  A    between atoms: _158  and  _159
REMARK   60  A    between atoms: _163  and  ZN_303
REMARK   61  A    between atoms: _164  and  _166
REMARK   62  A    between atoms: _166  and  _167
REMARK   63  A    between atoms: _166  and  _169
REMARK   64  A    between atoms: _169  and  _170
REMARK   65  A    between atoms: _173  and  _175
REMARK   66  A    between atoms: _175  and  _176
REMARK   67  A    between atoms: _175  and  _178
REMARK   68  A    between atoms: _178  and  _179
REMARK   69  A    between atoms: _182  and  _184
REMARK   70  A    between atoms: _184  and  _185
REMARK   71  A    between atoms: _184  and  _187
REMARK   72  A    between atoms: _187  and  _188
REMARK   73  A    between atoms: _190  and  _192
REMARK   74  A    between atoms: _192  and  _193
REMARK   75  A    between atoms: _192  and  _195
REMARK   76  A    between atoms: _195  and  _196
REMARK   77  A    between atoms: _199  and  _201
REMARK   78  A    between atoms: _201  and  _202
REMARK   79  A    between atoms: _201  and  _204
REMARK   80  A    between atoms: _204  and  _205
REMARK   81  A    between atoms: _207  and  _209
REMARK   82  A    between atoms: _209  and  _210
REMARK   83  A    between atoms: _214  and  _215
REMARK   84  A    between atoms: _220  and  _222
REMARK   85  A    between atoms: _222  and  _223
REMARK   86  A    between atoms: _225  and  _227
REMARK   87  A    between atoms: _227  and  _228
REMARK   88  A    between atoms: _227  and  _230
REMARK   89  A    between atoms: _230  and  _231
REMARK   90  A    between atoms: _236  and  _237
REMARK   91  A    between atoms: _239  and  _241
REMARK   92  A    between atoms: _241  and  _242
REMARK   93  A    between atoms: _241  and  _244
REMARK   94  A    between atoms: _244  and  _245
REMARK   95  A    between atoms: _250  and  _251
REMARK   96  A    between atoms: _254  and  _255
REMARK   97  A    between atoms: _260  and  _262
REMARK   98  A    between atoms: _262  and  _263
REMARK   99  A    between atoms: _262  and  _265
REMARK  100  A    between atoms: _265  and  _266
REMARK  101  A    between atoms: _270  and  ZN_304
REMARK  102  A    between atoms: _271  and  _273
REMARK  103  A    between atoms: _273  and  _274
REMARK  104  A    between atoms: _277  and  _279
REMARK  105  A    between atoms: _279  and  _280
REMARK  106  A    between atoms: _279  and  _282
REMARK  107  A    between atoms: _282  and  _283
REMARK  108  A    between atoms: _288  and  _289
REMARK  109  A    between atoms: _291  and  _293
REMARK  110  A    between atoms: _293  and  _294
REMARK  111  A    between atoms: _293  and  _296
REMARK  112  A    between atoms: _296  and  _297
REMARK  113  A    between atoms: _297  and  _298
REMARK                            x       y       z     vdW  Elec       q    Type
REMARK                         _______ _______ _______ _____ _____    ______ ____
ROOT
ATOM      1  O   HOH     1      14.525  30.483  43.692  0.00  0.00    +0.000 OA
ENDROOT
TORSDOF 0
REMARK  Name = ../refined-set-2016/2fu8/2fu8_pocket.pdb
REMARK  113 active torsions:
REMARK  status: ('A' for Active; 'I' for Inactive)
REMARK    1  A    between atoms: _1  and  _3
REMARK    2  A    between atoms: _3  and  _4
REMARK    3  A    between atoms: _3  and  _6
REMARK    4  A    between atoms: _6  and  _7
REMARK    5  A    between atoms: _12  and  _13
REMARK    6  A    between atoms: _15  and  _17
REMARK    7  A    between atoms: _17  and  _18
REMARK    8  A    between atoms: _17  and  _20
REMARK    9  A    between atoms: _20  and  _21
REMARK   10  A    between atoms: _24  and  _26
REMARK   11  A    between atoms: _26  and  _27
REMARK   12  A    between atoms: _26  and  _29
REMARK   13  A    between atoms: _32  and  _34
REMARK   14  A    between atoms: _34  and  _35
REMARK   15  A    between atoms: _34  and  _37
REMARK   16  A    between atoms: _37  and  _38
REMARK   17  A    between atoms: _41  and  _43
REMARK   18  A    between atoms: _43  and  _44
REMARK   19  A    between atoms: _43  and  _46
REMARK   20  A    between atoms: _46  and  _47
REMARK   21  A    between atoms: _57  and  _59
REMARK   22  A    between atoms: _59  and  _60
REMARK   23  A    between atoms: _59  and  _62
REMARK   24  A    between atoms: _62  and  _63
REMARK   25  A    between atoms: _66  and  _68
REMARK   26  A    between atoms: _68  and  _69
REMARK   27  A    between atoms: _68  and  _71
REMARK   28  A    between atoms: _71  and  _72
REMARK   29  A    between atoms: _75  and  _77
REMARK   30  A    between atoms: _77  and  _78
REMARK   31  A    between atoms: _77  and  _80
REMARK   32  A    between atoms: _80  and  _81
REMARK   33  A    between atoms: _81  and  _82
REMARK   34  A    between atoms: _84  and  _86
REMARK   35  A    between atoms: _86  and  _87
REMARK   36  A    between atoms: _86  and  _89
REMARK   37  A    between atoms: _89  and  _90
REMARK   38  A    between atoms: _94  and  ZN_303
REMARK   39  A    between atoms: _95  and  _97
REMARK   40  A    between atoms: _97  and  _98
REMARK   41  A    between atoms: _97  and  _100
REMARK   42  A    between atoms: _100  and  _101
REMARK   43  A    between atoms: _102  and  ZN_303
REMARK   44  A    between atoms: _106  and  _108
REMARK   45  A    between atoms: _108  and  _109
REMARK   46  A    between atoms: _112  and  _114
REMARK   47  A    between atoms: _123  and  _124
REMARK   48  A    between atoms: _132  and  _134
REMARK   49  A    between atoms: _134  and  _135
REMARK   50  A    between atoms: _134  and  _137
REMARK   51  A    between atoms: _137  and  _138
REMARK   52  A    between atoms: _144  and  _146
REMARK   53  A    between atoms: _146  and  _147
REMARK   54  A    between atoms: _146  and  _149
REMARK   55  A    between atoms: _149  and  _150
REMARK   56  A    between atoms: _153  and  _155
REMARK   57  A    between atoms: _155  and  _156
REMARK   58  A    between atoms: _155  and  _158
REMARK   59  A    between atoms: _158  and  _159
REMARK   60  A    between atoms: _163  and  ZN_303
REMARK   61  A    between atoms: _164  and  _166
REMARK   62  A    between atoms: _166  and  _167
REMARK   63  A    between atoms: _166  and  _169
REMARK   64  A    between atoms: _169  and  _170
REMARK   65  A    between atoms: _173  and  _175
REMARK   66  A    between atoms: _175  and  _176
REMARK   67  A    between atoms: _175  and  _178
REMARK   68  A    between atoms: _178  and  _179
REMARK   69  A    between atoms: _182  and  _184
REMARK   70  A    between atoms: _184  and  _185
REMARK   71  A    between atoms: _184  and  _187
REMARK   72  A    between atoms: _187  and  _188
REMARK   73  A    between atoms: _190  and  _192
REMARK   74  A    between atoms: _192  and  _193
REMARK   75  A    between atoms: _192  and  _195
REMARK   76  A    between atoms: _195  and  _196
REMARK   77  A    between atoms: _199  and  _201
REMARK   78  A    between atoms: _201  and  _202
REMARK   79  A    between atoms: _201  and  _204
REMARK   80  A    between atoms: _204  and  _205
REMARK   81  A    between atoms: _207  and  _209
REMARK   82  A    between atoms: _209  and  _210
REMARK   83  A    between atoms: _214  and  _215
REMARK   84  A    between atoms: _220  and  _222
REMARK   85  A    between atoms: _222  and  _223
REMARK   86  A    between atoms: _225  and  _227
REMARK   87  A    between atoms: _227  and  _228
REMARK   88  A    between atoms: _227  and  _230
REMARK   89  A    between atoms: _230  and  _231
REMARK   90  A    between atoms: _236  and  _237
REMARK   91  A    between atoms: _239  and  _241
REMARK   92  A    between atoms: _241  and  _242
REMARK   93  A    between atoms: _241  and  _244
REMARK   94  A    between atoms: _244  and  _245
REMARK   95  A    between atoms: _250  and  _251
REMARK   96  A    between atoms: _254  and  _255
REMARK   97  A    between atoms: _260  and  _262
REMARK   98  A    between atoms: _262  and  _263
REMARK   99  A    between atoms: _262  and  _265
REMARK  100  A    between atoms: _265  and  _266
REMARK  101  A    between atoms: _270  and  ZN_304
REMARK  102  A    between atoms: _271  and  _273
REMARK  103  A    between atoms: _273  and  _274
REMARK  104  A    between atoms: _277  and  _279
REMARK  105  A    between atoms: _279  and  _280
REMARK  106  A    between atoms: _279  and  _282
REMARK  107  A    between atoms: _282  and  _283
REMARK  108  A    between atoms: _288  and  _289
REMARK  109  A    between atoms: _291  and  _293
REMARK  110  A    between atoms: _293  and  _294
REMARK  111  A    between atoms: _293  and  _296
REMARK  112  A    between atoms: _296  and  _297
REMARK  113  A    between atoms: _297  and  _298
REMARK                            x       y       z     vdW  Elec       q    Type
REMARK                         _______ _______ _______ _____ _____    ______ ____
ROOT
ATOM      1  O   HOH     1      10.392  33.327  39.882  0.00  0.00    +0.000 OA
ENDROOT
TORSDOF 0
REMARK  Name = ../refined-set-2016/2fu8/2fu8_pocket.pdb
REMARK  113 active torsions:
REMARK  status: ('A' for Active; 'I' for Inactive)
REMARK    1  A    between atoms: _1  and  _3
REMARK    2  A    between atoms: _3  and  _4
REMARK    3  A    between atoms: _3  and  _6
REMARK    4  A    between atoms: _6  and  _7
REMARK    5  A    between atoms: _12  and  _13
REMARK    6  A    between atoms: _15  and  _17
REMARK    7  A    between atoms: _17  and  _18
REMARK    8  A    between atoms: _17  and  _20
REMARK    9  A    between atoms: _20  and  _21
REMARK   10  A    between atoms: _24  and  _26
REMARK   11  A    between atoms: _26  and  _27
REMARK   12  A    between atoms: _26  and  _29
REMARK   13  A    between atoms: _32  and  _34
REMARK   14  A    between atoms: _34  and  _35
REMARK   15  A    between atoms: _34  and  _37
REMARK   16  A    between atoms: _37  and  _38
REMARK   17  A    between atoms: _41  and  _43
REMARK   18  A    between atoms: _43  and  _44
REMARK   19  A    between atoms: _43  and  _46
REMARK   20  A    between atoms: _46  and  _47
REMARK   21  A    between atoms: _57  and  _59
REMARK   22  A    between atoms: _59  and  _60
REMARK   23  A    between atoms: _59  and  _62
REMARK   24  A    between atoms: _62  and  _63
REMARK   25  A    between atoms: _66  and  _68
REMARK   26  A    between atoms: _68  and  _69
REMARK   27  A    between atoms: _68  and  _71
REMARK   28  A    between atoms: _71  and  _72
REMARK   29  A    between atoms: _75  and  _77
REMARK   30  A    between atoms: _77  and  _78
REMARK   31  A    between atoms: _77  and  _80
REMARK   32  A    between atoms: _80  and  _81
REMARK   33  A    between atoms: _81  and  _82
REMARK   34  A    between atoms: _84  and  _86
REMARK   35  A    between atoms: _86  and  _87
REMARK   36  A    between atoms: _86  and  _89
REMARK   37  A    between atoms: _89  and  _90
REMARK   38  A    between atoms: _94  and  ZN_303
REMARK   39  A    between atoms: _95  and  _97
REMARK   40  A    between atoms: _97  and  _98
REMARK   41  A    between atoms: _97  and  _100
REMARK   42  A    between atoms: _100  and  _101
REMARK   43  A    between atoms: _102  and  ZN_303
REMARK   44  A    between atoms: _106  and  _108
REMARK   45  A    between atoms: _108  and  _109
REMARK   46  A    between atoms: _112  and  _114
REMARK   47  A    between atoms: _123  and  _124
REMARK   48  A    between atoms: _132  and  _134
REMARK   49  A    between atoms: _134  and  _135
REMARK   50  A    between atoms: _134  and  _137
REMARK   51  A    between atoms: _137  and  _138
REMARK   52  A    between atoms: _144  and  _146
REMARK   53  A    between atoms: _146  and  _147
REMARK   54  A    between atoms: _146  and  _149
REMARK   55  A    between atoms: _149  and  _150
REMARK   56  A    between atoms: _153  and  _155
REMARK   57  A    between atoms: _155  and  _156
REMARK   58  A    between atoms: _155  and  _158
REMARK   59  A    between atoms: _158  and  _159
REMARK   60  A    between atoms: _163  and  ZN_303
REMARK   61  A    between atoms: _164  and  _166
REMARK   62  A    between atoms: _166  and  _167
REMARK   63  A    between atoms: _166  and  _169
REMARK   64  A    between atoms: _169  and  _170
REMARK   65  A    between atoms: _173  and  _175
REMARK   66  A    between atoms: _175  and  _176
REMARK   67  A    between atoms: _175  and  _178
REMARK   68  A    between atoms: _178  and  _179
REMARK   69  A    between atoms: _182  and  _184
REMARK   70  A    between atoms: _184  and  _185
REMARK   71  A    between atoms: _184  and  _187
REMARK   72  A    between atoms: _187  and  _188
REMARK   73  A    between atoms: _190  and  _192
REMARK   74  A    between atoms: _192  and  _193
REMARK   75  A    between atoms: _192  and  _195
REMARK   76  A    between atoms: _195  and  _196
REMARK   77  A    between atoms: _199  and  _201
REMARK   78  A    between atoms: _201  and  _202
REMARK   79  A    between atoms: _201  and  _204
REMARK   80  A    between atoms: _204  and  _205
REMARK   81  A    between atoms: _207  and  _209
REMARK   82  A    between atoms: _209  and  _210
REMARK   83  A    between atoms: _214  and  _215
REMARK   84  A    between atoms: _220  and  _222
REMARK   85  A    between atoms: _222  and  _223
REMARK   86  A    between atoms: _225  and  _227
REMARK   87  A    between atoms: _227  and  _228
REMARK   88  A    between atoms: _227  and  _230
REMARK   89  A    between atoms: _230  and  _231
REMARK   90  A    between atoms: _236  and  _237
REMARK   91  A    between atoms: _239  and  _241
REMARK   92  A    between atoms: _241  and  _242
REMARK   93  A    between atoms: _241  and  _244
REMARK   94  A    between atoms: _244  and  _245
REMARK   95  A    between atoms: _250  and  _251
REMARK   96  A    between atoms: _254  and  _255
REMARK   97  A    between atoms: _260  and  _262
REMARK   98  A    between atoms: _262  and  _263
REMARK   99  A    between atoms: _262  and  _265
REMARK  100  A    between atoms: _265  and  _266
REMARK  101  A    between atoms: _270  and  ZN_304
REMARK  102  A    between atoms: _271  and  _273
REMARK  103  A    between atoms: _273  and  _274
REMARK  104  A    between atoms: _277  and  _279
REMARK  105  A    between atoms: _279  and  _280
REMARK  106  A    between atoms: _279  and  _282
REMARK  107  A    between atoms: _282  and  _283
REMARK  108  A    between atoms: _288  and  _289
REMARK  109  A    between atoms: _291  and  _293
REMARK  110  A    between atoms: _293  and  _294
REMARK  111  A    between atoms: _293  and  _296
REMARK  112  A    between atoms: _296  and  _297
REMARK  113  A    between atoms: _297  and  _298
REMARK                            x       y       z     vdW  Elec       q    Type
REMARK                         _______ _______ _______ _____ _____    ______ ____
ROOT
ATOM      1  O   HOH     1       2.817  30.576  35.075  0.00  0.00    +0.000 OA
ENDROOT
TORSDOF 0
REMARK  Name = ../refined-set-2016/2fu8/2fu8_pocket.pdb
REMARK  113 active torsions:
REMARK  status: ('A' for Active; 'I' for Inactive)
REMARK    1  A    between atoms: _1  and  _3
REMARK    2  A    between atoms: _3  and  _4
REMARK    3  A    between atoms: _3  and  _6
REMARK    4  A    between atoms: _6  and  _7
REMARK    5  A    between atoms: _12  and  _13
REMARK    6  A    between atoms: _15  and  _17
REMARK    7  A    between atoms: _17  and  _18
REMARK    8  A    between atoms: _17  and  _20
REMARK    9  A    between atoms: _20  and  _21
REMARK   10  A    between atoms: _24  and  _26
REMARK   11  A    between atoms: _26  and  _27
REMARK   12  A    between atoms: _26  and  _29
REMARK   13  A    between atoms: _32  and  _34
REMARK   14  A    between atoms: _34  and  _35
REMARK   15  A    between atoms: _34  and  _37
REMARK   16  A    between atoms: _37  and  _38
REMARK   17  A    between atoms: _41  and  _43
REMARK   18  A    between atoms: _43  and  _44
REMARK   19  A    between atoms: _43  and  _46
REMARK   20  A    between atoms: _46  and  _47
REMARK   21  A    between atoms: _57  and  _59
REMARK   22  A    between atoms: _59  and  _60
REMARK   23  A    between atoms: _59  and  _62
REMARK   24  A    between atoms: _62  and  _63
REMARK   25  A    between atoms: _66  and  _68
REMARK   26  A    between atoms: _68  and  _69
REMARK   27  A    between atoms: _68  and  _71
REMARK   28  A    between atoms: _71  and  _72
REMARK   29  A    between atoms: _75  and  _77
REMARK   30  A    between atoms: _77  and  _78
REMARK   31  A    between atoms: _77  and  _80
REMARK   32  A    between atoms: _80  and  _81
REMARK   33  A    between atoms: _81  and  _82
REMARK   34  A    between atoms: _84  and  _86
REMARK   35  A    between atoms: _86  and  _87
REMARK   36  A    between atoms: _86  and  _89
REMARK   37  A    between atoms: _89  and  _90
REMARK   38  A    between atoms: _94  and  ZN_303
REMARK   39  A    between atoms: _95  and  _97
REMARK   40  A    between atoms: _97  and  _98
REMARK   41  A    between atoms: _97  and  _100
REMARK   42  A    between atoms: _100  and  _101
REMARK   43  A    between atoms: _102  and  ZN_303
REMARK   44  A    between atoms: _106  and  _108
REMARK   45  A    between atoms: _108  and  _109
REMARK   46  A    between atoms: _112  and  _114
REMARK   47  A    between atoms: _123  and  _124
REMARK   48  A    between atoms: _132  and  _134
REMARK   49  A    between atoms: _134  and  _135
REMARK   50  A    between atoms: _134  and  _137
REMARK   51  A    between atoms: _137  and  _138
REMARK   52  A    between atoms: _144  and  _146
REMARK   53  A    between atoms: _146  and  _147
REMARK   54  A    between atoms: _146  and  _149
REMARK   55  A    between atoms: _149  and  _150
REMARK   56  A    between atoms: _153  and  _155
REMARK   57  A    between atoms: _155  and  _156
REMARK   58  A    between atoms: _155  and  _158
REMARK   59  A    between atoms: _158  and  _159
REMARK   60  A    between atoms: _163  and  ZN_303
REMARK   61  A    between atoms: _164  and  _166
REMARK   62  A    between atoms: _166  and  _167
REMARK   63  A    between atoms: _166  and  _169
REMARK   64  A    between atoms: _169  and  _170
REMARK   65  A    between atoms: _173  and  _175
REMARK   66  A    between atoms: _175  and  _176
REMARK   67  A    between atoms: _175  and  _178
REMARK   68  A    between atoms: _178  and  _179
REMARK   69  A    between atoms: _182  and  _184
REMARK   70  A    between atoms: _184  and  _185
REMARK   71  A    between atoms: _184  and  _187
REMARK   72  A    between atoms: _187  and  _188
REMARK   73  A    between atoms: _190  and  _192
REMARK   74  A    between atoms: _192  and  _193
REMARK   75  A    between atoms: _192  and  _195
REMARK   76  A    between atoms: _195  and  _196
REMARK   77  A    between atoms: _199  and  _201
REMARK   78  A    between atoms: _201  and  _202
REMARK   79  A    between atoms: _201  and  _204
REMARK   80  A    between atoms: _204  and  _205
REMARK   81  A    between atoms: _207  and  _209
REMARK   82  A    between atoms: _209  and  _210
REMARK   83  A    between atoms: _214  and  _215
REMARK   84  A    between atoms: _220  and  _222
REMARK   85  A    between atoms: _222  and  _223
REMARK   86  A    between atoms: _225  and  _227
REMARK   87  A    between atoms: _227  and  _228
REMARK   88  A    between atoms: _227  and  _230
REMARK   89  A    between atoms: _230  and  _231
REMARK   90  A    between atoms: _236  and  _237
REMARK   91  A    between atoms: _239  and  _241
REMARK   92  A    between atoms: _241  and  _242
REMARK   93  A    between atoms: _241  and  _244
REMARK   94  A    between atoms: _244  and  _245
REMARK   95  A    between atoms: _250  and  _251
REMARK   96  A    between atoms: _254  and  _255
REMARK   97  A    between atoms: _260  and  _262
REMARK   98  A    between atoms: _262  and  _263
REMARK   99  A    between atoms: _262  and  _265
REMARK  100  A    between atoms: _265  and  _266
REMARK  101  A    between atoms: _270  and  ZN_304
REMARK  102  A    between atoms: _271  and  _273
REMARK  103  A    between atoms: _273  and  _274
REMARK  104  A    between atoms: _277  and  _279
REMARK  105  A    between atoms: _279  and  _280
REMARK  106  A    between atoms: _279  and  _282
REMARK  107  A    between atoms: _282  and  _283
REMARK  108  A    between atoms: _288  and  _289
REMARK  109  A    between atoms: _291  and  _293
REMARK  110  A    between atoms: _293  and  _294
REMARK  111  A    between atoms: _293  and  _296
REMARK  112  A    between atoms: _296  and  _297
REMARK  113  A    between atoms: _297  and  _298
REMARK                            x       y       z     vdW  Elec       q    Type
REMARK                         _______ _______ _______ _____ _____    ______ ____
ROOT
ATOM      1  O   HOH     1       6.948  25.183  29.124  0.00  0.00    +0.000 OA
ENDROOT
TORSDOF 0
REMARK  Name = ../refined-set-2016/2fu8/2fu8_pocket.pdb
REMARK  113 active torsions:
REMARK  status: ('A' for Active; 'I' for Inactive)
REMARK    1  A    between atoms: _1  and  _3
REMARK    2  A    between atoms: _3  and  _4
REMARK    3  A    between atoms: _3  and  _6
REMARK    4  A    between atoms: _6  and  _7
REMARK    5  A    between atoms: _12  and  _13
REMARK    6  A    between atoms: _15  and  _17
REMARK    7  A    between atoms: _17  and  _18
REMARK    8  A    between atoms: _17  and  _20
REMARK    9  A    between atoms: _20  and  _21
REMARK   10  A    between atoms: _24  and  _26
REMARK   11  A    between atoms: _26  and  _27
REMARK   12  A    between atoms: _26  and  _29
REMARK   13  A    between atoms: _32  and  _34
REMARK   14  A    between atoms: _34  and  _35
REMARK   15  A    between atoms: _34  and  _37
REMARK   16  A    between atoms: _37  and  _38
REMARK   17  A    between atoms: _41  and  _43
REMARK   18  A    between atoms: _43  and  _44
REMARK   19  A    between atoms: _43  and  _46
REMARK   20  A    between atoms: _46  and  _47
REMARK   21  A    between atoms: _57  and  _59
REMARK   22  A    between atoms: _59  and  _60
REMARK   23  A    between atoms: _59  and  _62
REMARK   24  A    between atoms: _62  and  _63
REMARK   25  A    between atoms: _66  and  _68
REMARK   26  A    between atoms: _68  and  _69
REMARK   27  A    between atoms: _68  and  _71
REMARK   28  A    between atoms: _71  and  _72
REMARK   29  A    between atoms: _75  and  _77
REMARK   30  A    between atoms: _77  and  _78
REMARK   31  A    between atoms: _77  and  _80
REMARK   32  A    between atoms: _80  and  _81
REMARK   33  A    between atoms: _81  and  _82
REMARK   34  A    between atoms: _84  and  _86
REMARK   35  A    between atoms: _86  and  _87
REMARK   36  A    between atoms: _86  and  _89
REMARK   37  A    between atoms: _89  and  _90
REMARK   38  A    between atoms: _94  and  ZN_303
REMARK   39  A    between atoms: _95  and  _97
REMARK   40  A    between atoms: _97  and  _98
REMARK   41  A    between atoms: _97  and  _100
REMARK   42  A    between atoms: _100  and  _101
REMARK   43  A    between atoms: _102  and  ZN_303
REMARK   44  A    between atoms: _106  and  _108
REMARK   45  A    between atoms: _108  and  _109
REMARK   46  A    between atoms: _112  and  _114
REMARK   47  A    between atoms: _123  and  _124
REMARK   48  A    between atoms: _132  and  _134
REMARK   49  A    between atoms: _134  and  _135
REMARK   50  A    between atoms: _134  and  _137
REMARK   51  A    between atoms: _137  and  _138
REMARK   52  A    between atoms: _144  and  _146
REMARK   53  A    between atoms: _146  and  _147
REMARK   54  A    between atoms: _146  and  _149
REMARK   55  A    between atoms: _149  and  _150
REMARK   56  A    between atoms: _153  and  _155
REMARK   57  A    between atoms: _155  and  _156
REMARK   58  A    between atoms: _155  and  _158
REMARK   59  A    between atoms: _158  and  _159
REMARK   60  A    between atoms: _163  and  ZN_303
REMARK   61  A    between atoms: _164  and  _166
REMARK   62  A    between atoms: _166  and  _167
REMARK   63  A    between atoms: _166  and  _169
REMARK   64  A    between atoms: _169  and  _170
REMARK   65  A    between atoms: _173  and  _175
REMARK   66  A    between atoms: _175  and  _176
REMARK   67  A    between atoms: _175  and  _178
REMARK   68  A    between atoms: _178  and  _179
REMARK   69  A    between atoms: _182  and  _184
REMARK   70  A    between atoms: _184  and  _185
REMARK   71  A    between atoms: _184  and  _187
REMARK   72  A    between atoms: _187  and  _188
REMARK   73  A    between atoms: _190  and  _192
REMARK   74  A    between atoms: _192  and  _193
REMARK   75  A    between atoms: _192  and  _195
REMARK   76  A    between atoms: _195  and  _196
REMARK   77  A    between atoms: _199  and  _201
REMARK   78  A    between atoms: _201  and  _202
REMARK   79  A    between atoms: _201  and  _204
REMARK   80  A    between atoms: _204  and  _205
REMARK   81  A    between atoms: _207  and  _209
REMARK   82  A    between atoms: _209  and  _210
REMARK   83  A    between atoms: _214  and  _215
REMARK   84  A    between atoms: _220  and  _222
REMARK   85  A    between atoms: _222  and  _223
REMARK   86  A    between atoms: _225  and  _227
REMARK   87  A    between atoms: _227  and  _228
REMARK   88  A    between atoms: _227  and  _230
REMARK   89  A    between atoms: _230  and  _231
REMARK   90  A    between atoms: _236  and  _237
REMARK   91  A    between atoms: _239  and  _241
REMARK   92  A    between atoms: _241  and  _242
REMARK   93  A    between atoms: _241  and  _244
REMARK   94  A    between atoms: _244  and  _245
REMARK   95  A    between atoms: _250  and  _251
REMARK   96  A    between atoms: _254  and  _255
REMARK   97  A    between atoms: _260  and  _262
REMARK   98  A    between atoms: _262  and  _263
REMARK   99  A    between atoms: _262  and  _265
REMARK  100  A    between atoms: _265  and  _266
REMARK  101  A    between atoms: _270  and  ZN_304
REMARK  102  A    between atoms: _271  and  _273
REMARK  103  A    between atoms: _273  and  _274
REMARK  104  A    between atoms: _277  and  _279
REMARK  105  A    between atoms: _279  and  _280
REMARK  106  A    between atoms: _279  and  _282
REMARK  107  A    between atoms: _282  and  _283
REMARK  108  A    between atoms: _288  and  _289
REMARK  109  A    between atoms: _291  and  _293
REMARK  110  A    between atoms: _293  and  _294
REMARK  111  A    between atoms: _293  and  _296
REMARK  112  A    between atoms: _296  and  _297
REMARK  113  A    between atoms: _297  and  _298
REMARK                            x       y       z     vdW  Elec       q    Type
REMARK                         _______ _______ _______ _____ _____    ______ ____
ROOT
ATOM      1  O   HOH     1      11.252  31.927  35.541  0.00  0.00    +0.000 OA
ENDROOT
TORSDOF 0
REMARK  Name = ../refined-set-2016/2fu8/2fu8_pocket.pdb
REMARK  113 active torsions:
REMARK  status: ('A' for Active; 'I' for Inactive)
REMARK    1  A    between atoms: _1  and  _3
REMARK    2  A    between atoms: _3  and  _4
REMARK    3  A    between atoms: _3  and  _6
REMARK    4  A    between atoms: _6  and  _7
REMARK    5  A    between atoms: _12  and  _13
REMARK    6  A    between atoms: _15  and  _17
REMARK    7  A    between atoms: _17  and  _18
REMARK    8  A    between atoms: _17  and  _20
REMARK    9  A    between atoms: _20  and  _21
REMARK   10  A    between atoms: _24  and  _26
REMARK   11  A    between atoms: _26  and  _27
REMARK   12  A    between atoms: _26  and  _29
REMARK   13  A    between atoms: _32  and  _34
REMARK   14  A    between atoms: _34  and  _35
REMARK   15  A    between atoms: _34  and  _37
REMARK   16  A    between atoms: _37  and  _38
REMARK   17  A    between atoms: _41  and  _43
REMARK   18  A    between atoms: _43  and  _44
REMARK   19  A    between atoms: _43  and  _46
REMARK   20  A    between atoms: _46  and  _47
REMARK   21  A    between atoms: _57  and  _59
REMARK   22  A    between atoms: _59  and  _60
REMARK   23  A    between atoms: _59  and  _62
REMARK   24  A    between atoms: _62  and  _63
REMARK   25  A    between atoms: _66  and  _68
REMARK   26  A    between atoms: _68  and  _69
REMARK   27  A    between atoms: _68  and  _71
REMARK   28  A    between atoms: _71  and  _72
REMARK   29  A    between atoms: _75  and  _77
REMARK   30  A    between atoms: _77  and  _78
REMARK   31  A    between atoms: _77  and  _80
REMARK   32  A    between atoms: _80  and  _81
REMARK   33  A    between atoms: _81  and  _82
REMARK   34  A    between atoms: _84  and  _86
REMARK   35  A    between atoms: _86  and  _87
REMARK   36  A    between atoms: _86  and  _89
REMARK   37  A    between atoms: _89  and  _90
REMARK   38  A    between atoms: _94  and  ZN_303
REMARK   39  A    between atoms: _95  and  _97
REMARK   40  A    between atoms: _97  and  _98
REMARK   41  A    between atoms: _97  and  _100
REMARK   42  A    between atoms: _100  and  _101
REMARK   43  A    between atoms: _102  and  ZN_303
REMARK   44  A    between atoms: _106  and  _108
REMARK   45  A    between atoms: _108  and  _109
REMARK   46  A    between atoms: _112  and  _114
REMARK   47  A    between atoms: _123  and  _124
REMARK   48  A    between atoms: _132  and  _134
REMARK   49  A    between atoms: _134  and  _135
REMARK   50  A    between atoms: _134  and  _137
REMARK   51  A    between atoms: _137  and  _138
REMARK   52  A    between atoms: _144  and  _146
REMARK   53  A    between atoms: _146  and  _147
REMARK   54  A    between atoms: _146  and  _149
REMARK   55  A    between atoms: _149  and  _150
REMARK   56  A    between atoms: _153  and  _155
REMARK   57  A    between atoms: _155  and  _156
REMARK   58  A    between atoms: _155  and  _158
REMARK   59  A    between atoms: _158  and  _159
REMARK   60  A    between atoms: _163  and  ZN_303
REMARK   61  A    between atoms: _164  and  _166
REMARK   62  A    between atoms: _166  and  _167
REMARK   63  A    between atoms: _166  and  _169
REMARK   64  A    between atoms: _169  and  _170
REMARK   65  A    between atoms: _173  and  _175
REMARK   66  A    between atoms: _175  and  _176
REMARK   67  A    between atoms: _175  and  _178
REMARK   68  A    between atoms: _178  and  _179
REMARK   69  A    between atoms: _182  and  _184
REMARK   70  A    between atoms: _184  and  _185
REMARK   71  A    between atoms: _184  and  _187
REMARK   72  A    between atoms: _187  and  _188
REMARK   73  A    between atoms: _190  and  _192
REMARK   74  A    between atoms: _192  and  _193
REMARK   75  A    between atoms: _192  and  _195
REMARK   76  A    between atoms: _195  and  _196
REMARK   77  A    between atoms: _199  and  _201
REMARK   78  A    between atoms: _201  and  _202
REMARK   79  A    between atoms: _201  and  _204
REMARK   80  A    between atoms: _204  and  _205
REMARK   81  A    between atoms: _207  and  _209
REMARK   82  A    between atoms: _209  and  _210
REMARK   83  A    between atoms: _214  and  _215
REMARK   84  A    between atoms: _220  and  _222
REMARK   85  A    between atoms: _222  and  _223
REMARK   86  A    between atoms: _225  and  _227
REMARK   87  A    between atoms: _227  and  _228
REMARK   88  A    between atoms: _227  and  _230
REMARK   89  A    between atoms: _230  and  _231
REMARK   90  A    between atoms: _236  and  _237
REMARK   91  A    between atoms: _239  and  _241
REMARK   92  A    between atoms: _241  and  _242
REMARK   93  A    between atoms: _241  and  _244
REMARK   94  A    between atoms: _244  and  _245
REMARK   95  A    between atoms: _250  and  _251
REMARK   96  A    between atoms: _254  and  _255
REMARK   97  A    between atoms: _260  and  _262
REMARK   98  A    between atoms: _262  and  _263
REMARK   99  A    between atoms: _262  and  _265
REMARK  100  A    between atoms: _265  and  _266
REMARK  101  A    between atoms: _270  and  ZN_304
REMARK  102  A    between atoms: _271  and  _273
REMARK  103  A    between atoms: _273  and  _274
REMARK  104  A    between atoms: _277  and  _279
REMARK  105  A    between atoms: _279  and  _280
REMARK  106  A    between atoms: _279  and  _282
REMARK  107  A    between atoms: _282  and  _283
REMARK  108  A    between atoms: _288  and  _289
REMARK  109  A    between atoms: _291  and  _293
REMARK  110  A    between atoms: _293  and  _294
REMARK  111  A    between atoms: _293  and  _296
REMARK  112  A    between atoms: _296  and  _297
REMARK  113  A    between atoms: _297  and  _298
REMARK                            x       y       z     vdW  Elec       q    Type
REMARK                         _______ _______ _______ _____ _____    ______ ____
ROOT
ATOM      1  O   HOH     1      14.907  27.270  40.476  0.00  0.00    +0.000 OA
ENDROOT
TORSDOF 0
REMARK  Name = ../refined-set-2016/2fu8/2fu8_pocket.pdb
REMARK  113 active torsions:
REMARK  status: ('A' for Active; 'I' for Inactive)
REMARK    1  A    between atoms: _1  and  _3
REMARK    2  A    between atoms: _3  and  _4
REMARK    3  A    between atoms: _3  and  _6
REMARK    4  A    between atoms: _6  and  _7
REMARK    5  A    between atoms: _12  and  _13
REMARK    6  A    between atoms: _15  and  _17
REMARK    7  A    between atoms: _17  and  _18
REMARK    8  A    between atoms: _17  and  _20
REMARK    9  A    between atoms: _20  and  _21
REMARK   10  A    between atoms: _24  and  _26
REMARK   11  A    between atoms: _26  and  _27
REMARK   12  A    between atoms: _26  and  _29
REMARK   13  A    between atoms: _32  and  _34
REMARK   14  A    between atoms: _34  and  _35
REMARK   15  A    between atoms: _34  and  _37
REMARK   16  A    between atoms: _37  and  _38
REMARK   17  A    between atoms: _41  and  _43
REMARK   18  A    between atoms: _43  and  _44
REMARK   19  A    between atoms: _43  and  _46
REMARK   20  A    between atoms: _46  and  _47
REMARK   21  A    between atoms: _57  and  _59
REMARK   22  A    between atoms: _59  and  _60
REMARK   23  A    between atoms: _59  and  _62
REMARK   24  A    between atoms: _62  and  _63
REMARK   25  A    between atoms: _66  and  _68
REMARK   26  A    between atoms: _68  and  _69
REMARK   27  A    between atoms: _68  and  _71
REMARK   28  A    between atoms: _71  and  _72
REMARK   29  A    between atoms: _75  and  _77
REMARK   30  A    between atoms: _77  and  _78
REMARK   31  A    between atoms: _77  and  _80
REMARK   32  A    between atoms: _80  and  _81
REMARK   33  A    between atoms: _81  and  _82
REMARK   34  A    between atoms: _84  and  _86
REMARK   35  A    between atoms: _86  and  _87
REMARK   36  A    between atoms: _86  and  _89
REMARK   37  A    between atoms: _89  and  _90
REMARK   38  A    between atoms: _94  and  ZN_303
REMARK   39  A    between atoms: _95  and  _97
REMARK   40  A    between atoms: _97  and  _98
REMARK   41  A    between atoms: _97  and  _100
REMARK   42  A    between atoms: _100  and  _101
REMARK   43  A    between atoms: _102  and  ZN_303
REMARK   44  A    between atoms: _106  and  _108
REMARK   45  A    between atoms: _108  and  _109
REMARK   46  A    between atoms: _112  and  _114
REMARK   47  A    between atoms: _123  and  _124
REMARK   48  A    between atoms: _132  and  _134
REMARK   49  A    between atoms: _134  and  _135
REMARK   50  A    between atoms: _134  and  _137
REMARK   51  A    between atoms: _137  and  _138
REMARK   52  A    between atoms: _144  and  _146
REMARK   53  A    between atoms: _146  and  _147
REMARK   54  A    between atoms: _146  and  _149
REMARK   55  A    between atoms: _149  and  _150
REMARK   56  A    between atoms: _153  and  _155
REMARK   57  A    between atoms: _155  and  _156
REMARK   58  A    between atoms: _155  and  _158
REMARK   59  A    between atoms: _158  and  _159
REMARK   60  A    between atoms: _163  and  ZN_303
REMARK   61  A    between atoms: _164  and  _166
REMARK   62  A    between atoms: _166  and  _167
REMARK   63  A    between atoms: _166  and  _169
REMARK   64  A    between atoms: _169  and  _170
REMARK   65  A    between atoms: _173  and  _175
REMARK   66  A    between atoms: _175  and  _176
REMARK   67  A    between atoms: _175  and  _178
REMARK   68  A    between atoms: _178  and  _179
REMARK   69  A    between atoms: _182  and  _184
REMARK   70  A    between atoms: _184  and  _185
REMARK   71  A    between atoms: _184  and  _187
REMARK   72  A    between atoms: _187  and  _188
REMARK   73  A    between atoms: _190  and  _192
REMARK   74  A    between atoms: _192  and  _193
REMARK   75  A    between atoms: _192  and  _195
REMARK   76  A    between atoms: _195  and  _196
REMARK   77  A    between atoms: _199  and  _201
REMARK   78  A    between atoms: _201  and  _202
REMARK   79  A    between atoms: _201  and  _204
REMARK   80  A    between atoms: _204  and  _205
REMARK   81  A    between atoms: _207  and  _209
REMARK   82  A    between atoms: _209  and  _210
REMARK   83  A    between atoms: _214  and  _215
REMARK   84  A    between atoms: _220  and  _222
REMARK   85  A    between atoms: _222  and  _223
REMARK   86  A    between atoms: _225  and  _227
REMARK   87  A    between atoms: _227  and  _228
REMARK   88  A    between atoms: _227  and  _230
REMARK   89  A    between atoms: _230  and  _231
REMARK   90  A    between atoms: _236  and  _237
REMARK   91  A    between atoms: _239  and  _241
REMARK   92  A    between atoms: _241  and  _242
REMARK   93  A    between atoms: _241  and  _244
REMARK   94  A    between atoms: _244  and  _245
REMARK   95  A    between atoms: _250  and  _251
REMARK   96  A    between atoms: _254  and  _255
REMARK   97  A    between atoms: _260  and  _262
REMARK   98  A    between atoms: _262  and  _263
REMARK   99  A    between atoms: _262  and  _265
REMARK  100  A    between atoms: _265  and  _266
REMARK  101  A    between atoms: _270  and  ZN_304
REMARK  102  A    between atoms: _271  and  _273
REMARK  103  A    between atoms: _273  and  _274
REMARK  104  A    between atoms: _277  and  _279
REMARK  105  A    between atoms: _279  and  _280
REMARK  106  A    between atoms: _279  and  _282
REMARK  107  A    between atoms: _282  and  _283
REMARK  108  A    between atoms: _288  and  _289
REMARK  109  A    between atoms: _291  and  _293
REMARK  110  A    between atoms: _293  and  _294
REMARK  111  A    between atoms: _293  and  _296
REMARK  112  A    between atoms: _296  and  _297
REMARK  113  A    between atoms: _297  and  _298
REMARK                            x       y       z     vdW  Elec       q    Type
REMARK                         _______ _______ _______ _____ _____    ______ ____
ROOT
ATOM      1  O   HOH     1       9.349  32.151  37.407  0.00  0.00    +0.000 OA
ENDROOT
TORSDOF 0
REMARK  Name = ../refined-set-2016/2fu8/2fu8_pocket.pdb
REMARK  113 active torsions:
REMARK  status: ('A' for Active; 'I' for Inactive)
REMARK    1  A    between atoms: _1  and  _3
REMARK    2  A    between atoms: _3  and  _4
REMARK    3  A    between atoms: _3  and  _6
REMARK    4  A    between atoms: _6  and  _7
REMARK    5  A    between atoms: _12  and  _13
REMARK    6  A    between atoms: _15  and  _17
REMARK    7  A    between atoms: _17  and  _18
REMARK    8  A    between atoms: _17  and  _20
REMARK    9  A    between atoms: _20  and  _21
REMARK   10  A    between atoms: _24  and  _26
REMARK   11  A    between atoms: _26  and  _27
REMARK   12  A    between atoms: _26  and  _29
REMARK   13  A    between atoms: _32  and  _34
REMARK   14  A    between atoms: _34  and  _35
REMARK   15  A    between atoms: _34  and  _37
REMARK   16  A    between atoms: _37  and  _38
REMARK   17  A    between atoms: _41  and  _43
REMARK   18  A    between atoms: _43  and  _44
REMARK   19  A    between atoms: _43  and  _46
REMARK   20  A    between atoms: _46  and  _47
REMARK   21  A    between atoms: _57  and  _59
REMARK   22  A    between atoms: _59  and  _60
REMARK   23  A    between atoms: _59  and  _62
REMARK   24  A    between atoms: _62  and  _63
REMARK   25  A    between atoms: _66  and  _68
REMARK   26  A    between atoms: _68  and  _69
REMARK   27  A    between atoms: _68  and  _71
REMARK   28  A    between atoms: _71  and  _72
REMARK   29  A    between atoms: _75  and  _77
REMARK   30  A    between atoms: _77  and  _78
REMARK   31  A    between atoms: _77  and  _80
REMARK   32  A    between atoms: _80  and  _81
REMARK   33  A    between atoms: _81  and  _82
REMARK   34  A    between atoms: _84  and  _86
REMARK   35  A    between atoms: _86  and  _87
REMARK   36  A    between atoms: _86  and  _89
REMARK   37  A    between atoms: _89  and  _90
REMARK   38  A    between atoms: _94  and  ZN_303
REMARK   39  A    between atoms: _95  and  _97
REMARK   40  A    between atoms: _97  and  _98
REMARK   41  A    between atoms: _97  and  _100
REMARK   42  A    between atoms: _100  and  _101
REMARK   43  A    between atoms: _102  and  ZN_303
REMARK   44  A    between atoms: _106  and  _108
REMARK   45  A    between atoms: _108  and  _109
REMARK   46  A    between atoms: _112  and  _114
REMARK   47  A    between atoms: _123  and  _124
REMARK   48  A    between atoms: _132  and  _134
REMARK   49  A    between atoms: _134  and  _135
REMARK   50  A    between atoms: _134  and  _137
REMARK   51  A    between atoms: _137  and  _138
REMARK   52  A    between atoms: _144  and  _146
REMARK   53  A    between atoms: _146  and  _147
REMARK   54  A    between atoms: _146  and  _149
REMARK   55  A    between atoms: _149  and  _150
REMARK   56  A    between atoms: _153  and  _155
REMARK   57  A    between atoms: _155  and  _156
REMARK   58  A    between atoms: _155  and  _158
REMARK   59  A    between atoms: _158  and  _159
REMARK   60  A    between atoms: _163  and  ZN_303
REMARK   61  A    between atoms: _164  and  _166
REMARK   62  A    between atoms: _166  and  _167
REMARK   63  A    between atoms: _166  and  _169
REMARK   64  A    between atoms: _169  and  _170
REMARK   65  A    between atoms: _173  and  _175
REMARK   66  A    between atoms: _175  and  _176
REMARK   67  A    between atoms: _175  and  _178
REMARK   68  A    between atoms: _178  and  _179
REMARK   69  A    between atoms: _182  and  _184
REMARK   70  A    between atoms: _184  and  _185
REMARK   71  A    between atoms: _184  and  _187
REMARK   72  A    between atoms: _187  and  _188
REMARK   73  A    between atoms: _190  and  _192
REMARK   74  A    between atoms: _192  and  _193
REMARK   75  A    between atoms: _192  and  _195
REMARK   76  A    between atoms: _195  and  _196
REMARK   77  A    between atoms: _199  and  _201
REMARK   78  A    between atoms: _201  and  _202
REMARK   79  A    between atoms: _201  and  _204
REMARK   80  A    between atoms: _204  and  _205
REMARK   81  A    between atoms: _207  and  _209
REMARK   82  A    between atoms: _209  and  _210
REMARK   83  A    between atoms: _214  and  _215
REMARK   84  A    between atoms: _220  and  _222
REMARK   85  A    between atoms: _222  and  _223
REMARK   86  A    between atoms: _225  and  _227
REMARK   87  A    between atoms: _227  and  _228
REMARK   88  A    between atoms: _227  and  _230
REMARK   89  A    between atoms: _230  and  _231
REMARK   90  A    between atoms: _236  and  _237
REMARK   91  A    between atoms: _239  and  _241
REMARK   92  A    between atoms: _241  and  _242
REMARK   93  A    between atoms: _241  and  _244
REMARK   94  A    between atoms: _244  and  _245
REMARK   95  A    between atoms: _250  and  _251
REMARK   96  A    between atoms: _254  and  _255
REMARK   97  A    between atoms: _260  and  _262
REMARK   98  A    between atoms: _262  and  _263
REMARK   99  A    between atoms: _262  and  _265
REMARK  100  A    between atoms: _265  and  _266
REMARK  101  A    between atoms: _270  and  ZN_304
REMARK  102  A    between atoms: _271  and  _273
REMARK  103  A    between atoms: _273  and  _274
REMARK  104  A    between atoms: _277  and  _279
REMARK  105  A    between atoms: _279  and  _280
REMARK  106  A    between atoms: _279  and  _282
REMARK  107  A    between atoms: _282  and  _283
REMARK  108  A    between atoms: _288  and  _289
REMARK  109  A    between atoms: _291  and  _293
REMARK  110  A    between atoms: _293  and  _294
REMARK  111  A    between atoms: _293  and  _296
REMARK  112  A    between atoms: _296  and  _297
REMARK  113  A    between atoms: _297  and  _298
REMARK                            x       y       z     vdW  Elec       q    Type
REMARK                         _______ _______ _______ _____ _____    ______ ____
ROOT
ATOM      1  O   HOH     1      12.082  30.043  42.591  0.00  0.00    +0.000 OA
ENDROOT
TORSDOF 0
REMARK  Name = ../refined-set-2016/2fu8/2fu8_pocket.pdb
REMARK  113 active torsions:
REMARK  status: ('A' for Active; 'I' for Inactive)
REMARK    1  A    between atoms: _1  and  _3
REMARK    2  A    between atoms: _3  and  _4
REMARK    3  A    between atoms: _3  and  _6
REMARK    4  A    between atoms: _6  and  _7
REMARK    5  A    between atoms: _12  and  _13
REMARK    6  A    between atoms: _15  and  _17
REMARK    7  A    between atoms: _17  and  _18
REMARK    8  A    between atoms: _17  and  _20
REMARK    9  A    between atoms: _20  and  _21
REMARK   10  A    between atoms: _24  and  _26
REMARK   11  A    between atoms: _26  and  _27
REMARK   12  A    between atoms: _26  and  _29
REMARK   13  A    between atoms: _32  and  _34
REMARK   14  A    between atoms: _34  and  _35
REMARK   15  A    between atoms: _34  and  _37
REMARK   16  A    between atoms: _37  and  _38
REMARK   17  A    between atoms: _41  and  _43
REMARK   18  A    between atoms: _43  and  _44
REMARK   19  A    between atoms: _43  and  _46
REMARK   20  A    between atoms: _46  and  _47
REMARK   21  A    between atoms: _57  and  _59
REMARK   22  A    between atoms: _59  and  _60
REMARK   23  A    between atoms: _59  and  _62
REMARK   24  A    between atoms: _62  and  _63
REMARK   25  A    between atoms: _66  and  _68
REMARK   26  A    between atoms: _68  and  _69
REMARK   27  A    between atoms: _68  and  _71
REMARK   28  A    between atoms: _71  and  _72
REMARK   29  A    between atoms: _75  and  _77
REMARK   30  A    between atoms: _77  and  _78
REMARK   31  A    between atoms: _77  and  _80
REMARK   32  A    between atoms: _80  and  _81
REMARK   33  A    between atoms: _81  and  _82
REMARK   34  A    between atoms: _84  and  _86
REMARK   35  A    between atoms: _86  and  _87
REMARK   36  A    between atoms: _86  and  _89
REMARK   37  A    between atoms: _89  and  _90
REMARK   38  A    between atoms: _94  and  ZN_303
REMARK   39  A    between atoms: _95  and  _97
REMARK   40  A    between atoms: _97  and  _98
REMARK   41  A    between atoms: _97  and  _100
REMARK   42  A    between atoms: _100  and  _101
REMARK   43  A    between atoms: _102  and  ZN_303
REMARK   44  A    between atoms: _106  and  _108
REMARK   45  A    between atoms: _108  and  _109
REMARK   46  A    between atoms: _112  and  _114
REMARK   47  A    between atoms: _123  and  _124
REMARK   48  A    between atoms: _132  and  _134
REMARK   49  A    between atoms: _134  and  _135
REMARK   50  A    between atoms: _134  and  _137
REMARK   51  A    between atoms: _137  and  _138
REMARK   52  A    between atoms: _144  and  _146
REMARK   53  A    between atoms: _146  and  _147
REMARK   54  A    between atoms: _146  and  _149
REMARK   55  A    between atoms: _149  and  _150
REMARK   56  A    between atoms: _153  and  _155
REMARK   57  A    between atoms: _155  and  _156
REMARK   58  A    between atoms: _155  and  _158
REMARK   59  A    between atoms: _158  and  _159
REMARK   60  A    between atoms: _163  and  ZN_303
REMARK   61  A    between atoms: _164  and  _166
REMARK   62  A    between atoms: _166  and  _167
REMARK   63  A    between atoms: _166  and  _169
REMARK   64  A    between atoms: _169  and  _170
REMARK   65  A    between atoms: _173  and  _175
REMARK   66  A    between atoms: _175  and  _176
REMARK   67  A    between atoms: _175  and  _178
REMARK   68  A    between atoms: _178  and  _179
REMARK   69  A    between atoms: _182  and  _184
REMARK   70  A    between atoms: _184  and  _185
REMARK   71  A    between atoms: _184  and  _187
REMARK   72  A    between atoms: _187  and  _188
REMARK   73  A    between atoms: _190  and  _192
REMARK   74  A    between atoms: _192  and  _193
REMARK   75  A    between atoms: _192  and  _195
REMARK   76  A    between atoms: _195  and  _196
REMARK   77  A    between atoms: _199  and  _201
REMARK   78  A    between atoms: _201  and  _202
REMARK   79  A    between atoms: _201  and  _204
REMARK   80  A    between atoms: _204  and  _205
REMARK   81  A    between atoms: _207  and  _209
REMARK   82  A    between atoms: _209  and  _210
REMARK   83  A    between atoms: _214  and  _215
REMARK   84  A    between atoms: _220  and  _222
REMARK   85  A    between atoms: _222  and  _223
REMARK   86  A    between atoms: _225  and  _227
REMARK   87  A    between atoms: _227  and  _228
REMARK   88  A    between atoms: _227  and  _230
REMARK   89  A    between atoms: _230  and  _231
REMARK   90  A    between atoms: _236  and  _237
REMARK   91  A    between atoms: _239  and  _241
REMARK   92  A    between atoms: _241  and  _242
REMARK   93  A    between atoms: _241  and  _244
REMARK   94  A    between atoms: _244  and  _245
REMARK   95  A    between atoms: _250  and  _251
REMARK   96  A    between atoms: _254  and  _255
REMARK   97  A    between atoms: _260  and  _262
REMARK   98  A    between atoms: _262  and  _263
REMARK   99  A    between atoms: _262  and  _265
REMARK  100  A    between atoms: _265  and  _266
REMARK  101  A    between atoms: _270  and  ZN_304
REMARK  102  A    between atoms: _271  and  _273
REMARK  103  A    between atoms: _273  and  _274
REMARK  104  A    between atoms: _277  and  _279
REMARK  105  A    between atoms: _279  and  _280
REMARK  106  A    between atoms: _279  and  _282
REMARK  107  A    between atoms: _282  and  _283
REMARK  108  A    between atoms: _288  and  _289
REMARK  109  A    between atoms: _291  and  _293
REMARK  110  A    between atoms: _293  and  _294
REMARK  111  A    between atoms: _293  and  _296
REMARK  112  A    between atoms: _296  and  _297
REMARK  113  A    between atoms: _297  and  _298
REMARK                            x       y       z     vdW  Elec       q    Type
REMARK                         _______ _______ _______ _____ _____    ______ ____
ROOT
ATOM      1  O   HOH     1      16.837  23.296  38.971  0.00  0.00    +0.000 OA
ENDROOT
TORSDOF 0
REMARK  Name = ../refined-set-2016/2fu8/2fu8_pocket.pdb
REMARK  113 active torsions:
REMARK  status: ('A' for Active; 'I' for Inactive)
REMARK    1  A    between atoms: _1  and  _3
REMARK    2  A    between atoms: _3  and  _4
REMARK    3  A    between atoms: _3  and  _6
REMARK    4  A    between atoms: _6  and  _7
REMARK    5  A    between atoms: _12  and  _13
REMARK    6  A    between atoms: _15  and  _17
REMARK    7  A    between atoms: _17  and  _18
REMARK    8  A    between atoms: _17  and  _20
REMARK    9  A    between atoms: _20  and  _21
REMARK   10  A    between atoms: _24  and  _26
REMARK   11  A    between atoms: _26  and  _27
REMARK   12  A    between atoms: _26  and  _29
REMARK   13  A    between atoms: _32  and  _34
REMARK   14  A    between atoms: _34  and  _35
REMARK   15  A    between atoms: _34  and  _37
REMARK   16  A    between atoms: _37  and  _38
REMARK   17  A    between atoms: _41  and  _43
REMARK   18  A    between atoms: _43  and  _44
REMARK   19  A    between atoms: _43  and  _46
REMARK   20  A    between atoms: _46  and  _47
REMARK   21  A    between atoms: _57  and  _59
REMARK   22  A    between atoms: _59  and  _60
REMARK   23  A    between atoms: _59  and  _62
REMARK   24  A    between atoms: _62  and  _63
REMARK   25  A    between atoms: _66  and  _68
REMARK   26  A    between atoms: _68  and  _69
REMARK   27  A    between atoms: _68  and  _71
REMARK   28  A    between atoms: _71  and  _72
REMARK   29  A    between atoms: _75  and  _77
REMARK   30  A    between atoms: _77  and  _78
REMARK   31  A    between atoms: _77  and  _80
REMARK   32  A    between atoms: _80  and  _81
REMARK   33  A    between atoms: _81  and  _82
REMARK   34  A    between atoms: _84  and  _86
REMARK   35  A    between atoms: _86  and  _87
REMARK   36  A    between atoms: _86  and  _89
REMARK   37  A    between atoms: _89  and  _90
REMARK   38  A    between atoms: _94  and  ZN_303
REMARK   39  A    between atoms: _95  and  _97
REMARK   40  A    between atoms: _97  and  _98
REMARK   41  A    between atoms: _97  and  _100
REMARK   42  A    between atoms: _100  and  _101
REMARK   43  A    between atoms: _102  and  ZN_303
REMARK   44  A    between atoms: _106  and  _108
REMARK   45  A    between atoms: _108  and  _109
REMARK   46  A    between atoms: _112  and  _114
REMARK   47  A    between atoms: _123  and  _124
REMARK   48  A    between atoms: _132  and  _134
REMARK   49  A    between atoms: _134  and  _135
REMARK   50  A    between atoms: _134  and  _137
REMARK   51  A    between atoms: _137  and  _138
REMARK   52  A    between atoms: _144  and  _146
REMARK   53  A    between atoms: _146  and  _147
REMARK   54  A    between atoms: _146  and  _149
REMARK   55  A    between atoms: _149  and  _150
REMARK   56  A    between atoms: _153  and  _155
REMARK   57  A    between atoms: _155  and  _156
REMARK   58  A    between atoms: _155  and  _158
REMARK   59  A    between atoms: _158  and  _159
REMARK   60  A    between atoms: _163  and  ZN_303
REMARK   61  A    between atoms: _164  and  _166
REMARK   62  A    between atoms: _166  and  _167
REMARK   63  A    between atoms: _166  and  _169
REMARK   64  A    between atoms: _169  and  _170
REMARK   65  A    between atoms: _173  and  _175
REMARK   66  A    between atoms: _175  and  _176
REMARK   67  A    between atoms: _175  and  _178
REMARK   68  A    between atoms: _178  and  _179
REMARK   69  A    between atoms: _182  and  _184
REMARK   70  A    between atoms: _184  and  _185
REMARK   71  A    between atoms: _184  and  _187
REMARK   72  A    between atoms: _187  and  _188
REMARK   73  A    between atoms: _190  and  _192
REMARK   74  A    between atoms: _192  and  _193
REMARK   75  A    between atoms: _192  and  _195
REMARK   76  A    between atoms: _195  and  _196
REMARK   77  A    between atoms: _199  and  _201
REMARK   78  A    between atoms: _201  and  _202
REMARK   79  A    between atoms: _201  and  _204
REMARK   80  A    between atoms: _204  and  _205
REMARK   81  A    between atoms: _207  and  _209
REMARK   82  A    between atoms: _209  and  _210
REMARK   83  A    between atoms: _214  and  _215
REMARK   84  A    between atoms: _220  and  _222
REMARK   85  A    between atoms: _222  and  _223
REMARK   86  A    between atoms: _225  and  _227
REMARK   87  A    between atoms: _227  and  _228
REMARK   88  A    between atoms: _227  and  _230
REMARK   89  A    between atoms: _230  and  _231
REMARK   90  A    between atoms: _236  and  _237
REMARK   91  A    between atoms: _239  and  _241
REMARK   92  A    between atoms: _241  and  _242
REMARK   93  A    between atoms: _241  and  _244
REMARK   94  A    between atoms: _244  and  _245
REMARK   95  A    between atoms: _250  and  _251
REMARK   96  A    between atoms: _254  and  _255
REMARK   97  A    between atoms: _260  and  _262
REMARK   98  A    between atoms: _262  and  _263
REMARK   99  A    between atoms: _262  and  _265
REMARK  100  A    between atoms: _265  and  _266
REMARK  101  A    between atoms: _270  and  ZN_304
REMARK  102  A    between atoms: _271  and  _273
REMARK  103  A    between atoms: _273  and  _274
REMARK  104  A    between atoms: _277  and  _279
REMARK  105  A    between atoms: _279  and  _280
REMARK  106  A    between atoms: _279  and  _282
REMARK  107  A    between atoms: _282  and  _283
REMARK  108  A    between atoms: _288  and  _289
REMARK  109  A    between atoms: _291  and  _293
REMARK  110  A    between atoms: _293  and  _294
REMARK  111  A    between atoms: _293  and  _296
REMARK  112  A    between atoms: _296  and  _297
REMARK  113  A    between atoms: _297  and  _298
REMARK                            x       y       z     vdW  Elec       q    Type
REMARK                         _______ _______ _______ _____ _____    ______ ____
ROOT
ATOM      1  O   HOH     1      10.674  32.015  42.328  0.00  0.00    +0.000 OA
ENDROOT
TORSDOF 0
REMARK  Name = ../refined-set-2016/2fu8/2fu8_pocket.pdb
REMARK  113 active torsions:
REMARK  status: ('A' for Active; 'I' for Inactive)
REMARK    1  A    between atoms: _1  and  _3
REMARK    2  A    between atoms: _3  and  _4
REMARK    3  A    between atoms: _3  and  _6
REMARK    4  A    between atoms: _6  and  _7
REMARK    5  A    between atoms: _12  and  _13
REMARK    6  A    between atoms: _15  and  _17
REMARK    7  A    between atoms: _17  and  _18
REMARK    8  A    between atoms: _17  and  _20
REMARK    9  A    between atoms: _20  and  _21
REMARK   10  A    between atoms: _24  and  _26
REMARK   11  A    between atoms: _26  and  _27
REMARK   12  A    between atoms: _26  and  _29
REMARK   13  A    between atoms: _32  and  _34
REMARK   14  A    between atoms: _34  and  _35
REMARK   15  A    between atoms: _34  and  _37
REMARK   16  A    between atoms: _37  and  _38
REMARK   17  A    between atoms: _41  and  _43
REMARK   18  A    between atoms: _43  and  _44
REMARK   19  A    between atoms: _43  and  _46
REMARK   20  A    between atoms: _46  and  _47
REMARK   21  A    between atoms: _57  and  _59
REMARK   22  A    between atoms: _59  and  _60
REMARK   23  A    between atoms: _59  and  _62
REMARK   24  A    between atoms: _62  and  _63
REMARK   25  A    between atoms: _66  and  _68
REMARK   26  A    between atoms: _68  and  _69
REMARK   27  A    between atoms: _68  and  _71
REMARK   28  A    between atoms: _71  and  _72
REMARK   29  A    between atoms: _75  and  _77
REMARK   30  A    between atoms: _77  and  _78
REMARK   31  A    between atoms: _77  and  _80
REMARK   32  A    between atoms: _80  and  _81
REMARK   33  A    between atoms: _81  and  _82
REMARK   34  A    between atoms: _84  and  _86
REMARK   35  A    between atoms: _86  and  _87
REMARK   36  A    between atoms: _86  and  _89
REMARK   37  A    between atoms: _89  and  _90
REMARK   38  A    between atoms: _94  and  ZN_303
REMARK   39  A    between atoms: _95  and  _97
REMARK   40  A    between atoms: _97  and  _98
REMARK   41  A    between atoms: _97  and  _100
REMARK   42  A    between atoms: _100  and  _101
REMARK   43  A    between atoms: _102  and  ZN_303
REMARK   44  A    between atoms: _106  and  _108
REMARK   45  A    between atoms: _108  and  _109
REMARK   46  A    between atoms: _112  and  _114
REMARK   47  A    between atoms: _123  and  _124
REMARK   48  A    between atoms: _132  and  _134
REMARK   49  A    between atoms: _134  and  _135
REMARK   50  A    between atoms: _134  and  _137
REMARK   51  A    between atoms: _137  and  _138
REMARK   52  A    between atoms: _144  and  _146
REMARK   53  A    between atoms: _146  and  _147
REMARK   54  A    between atoms: _146  and  _149
REMARK   55  A    between atoms: _149  and  _150
REMARK   56  A    between atoms: _153  and  _155
REMARK   57  A    between atoms: _155  and  _156
REMARK   58  A    between atoms: _155  and  _158
REMARK   59  A    between atoms: _158  and  _159
REMARK   60  A    between atoms: _163  and  ZN_303
REMARK   61  A    between atoms: _164  and  _166
REMARK   62  A    between atoms: _166  and  _167
REMARK   63  A    between atoms: _166  and  _169
REMARK   64  A    between atoms: _169  and  _170
REMARK   65  A    between atoms: _173  and  _175
REMARK   66  A    between atoms: _175  and  _176
REMARK   67  A    between atoms: _175  and  _178
REMARK   68  A    between atoms: _178  and  _179
REMARK   69  A    between atoms: _182  and  _184
REMARK   70  A    between atoms: _184  and  _185
REMARK   71  A    between atoms: _184  and  _187
REMARK   72  A    between atoms: _187  and  _188
REMARK   73  A    between atoms: _190  and  _192
REMARK   74  A    between atoms: _192  and  _193
REMARK   75  A    between atoms: _192  and  _195
REMARK   76  A    between atoms: _195  and  _196
REMARK   77  A    between atoms: _199  and  _201
REMARK   78  A    between atoms: _201  and  _202
REMARK   79  A    between atoms: _201  and  _204
REMARK   80  A    between atoms: _204  and  _205
REMARK   81  A    between atoms: _207  and  _209
REMARK   82  A    between atoms: _209  and  _210
REMARK   83  A    between atoms: _214  and  _215
REMARK   84  A    between atoms: _220  and  _222
REMARK   85  A    between atoms: _222  and  _223
REMARK   86  A    between atoms: _225  and  _227
REMARK   87  A    between atoms: _227  and  _228
REMARK   88  A    between atoms: _227  and  _230
REMARK   89  A    between atoms: _230  and  _231
REMARK   90  A    between atoms: _236  and  _237
REMARK   91  A    between atoms: _239  and  _241
REMARK   92  A    between atoms: _241  and  _242
REMARK   93  A    between atoms: _241  and  _244
REMARK   94  A    between atoms: _244  and  _245
REMARK   95  A    between atoms: _250  and  _251
REMARK   96  A    between atoms: _254  and  _255
REMARK   97  A    between atoms: _260  and  _262
REMARK   98  A    between atoms: _262  and  _263
REMARK   99  A    between atoms: _262  and  _265
REMARK  100  A    between atoms: _265  and  _266
REMARK  101  A    between atoms: _270  and  ZN_304
REMARK  102  A    between atoms: _271  and  _273
REMARK  103  A    between atoms: _273  and  _274
REMARK  104  A    between atoms: _277  and  _279
REMARK  105  A    between atoms: _279  and  _280
REMARK  106  A    between atoms: _279  and  _282
REMARK  107  A    between atoms: _282  and  _283
REMARK  108  A    between atoms: _288  and  _289
REMARK  109  A    between atoms: _291  and  _293
REMARK  110  A    between atoms: _293  and  _294
REMARK  111  A    between atoms: _293  and  _296
REMARK  112  A    between atoms: _296  and  _297
REMARK  113  A    between atoms: _297  and  _298
REMARK                            x       y       z     vdW  Elec       q    Type
REMARK                         _______ _______ _______ _____ _____    ______ ____
ROOT
ATOM      1  O   HOH     1      15.406  28.017  43.314  0.00  0.00    +0.000 OA
ENDROOT
TORSDOF 0
REMARK  Name = ../refined-set-2016/2fu8/2fu8_pocket.pdb
REMARK  113 active torsions:
REMARK  status: ('A' for Active; 'I' for Inactive)
REMARK    1  A    between atoms: _1  and  _3
REMARK    2  A    between atoms: _3  and  _4
REMARK    3  A    between atoms: _3  and  _6
REMARK    4  A    between atoms: _6  and  _7
REMARK    5  A    between atoms: _12  and  _13
REMARK    6  A    between atoms: _15  and  _17
REMARK    7  A    between atoms: _17  and  _18
REMARK    8  A    between atoms: _17  and  _20
REMARK    9  A    between atoms: _20  and  _21
REMARK   10  A    between atoms: _24  and  _26
REMARK   11  A    between atoms: _26  and  _27
REMARK   12  A    between atoms: _26  and  _29
REMARK   13  A    between atoms: _32  and  _34
REMARK   14  A    between atoms: _34  and  _35
REMARK   15  A    between atoms: _34  and  _37
REMARK   16  A    between atoms: _37  and  _38
REMARK   17  A    between atoms: _41  and  _43
REMARK   18  A    between atoms: _43  and  _44
REMARK   19  A    between atoms: _43  and  _46
REMARK   20  A    between atoms: _46  and  _47
REMARK   21  A    between atoms: _57  and  _59
REMARK   22  A    between atoms: _59  and  _60
REMARK   23  A    between atoms: _59  and  _62
REMARK   24  A    between atoms: _62  and  _63
REMARK   25  A    between atoms: _66  and  _68
REMARK   26  A    between atoms: _68  and  _69
REMARK   27  A    between atoms: _68  and  _71
REMARK   28  A    between atoms: _71  and  _72
REMARK   29  A    between atoms: _75  and  _77
REMARK   30  A    between atoms: _77  and  _78
REMARK   31  A    between atoms: _77  and  _80
REMARK   32  A    between atoms: _80  and  _81
REMARK   33  A    between atoms: _81  and  _82
REMARK   34  A    between atoms: _84  and  _86
REMARK   35  A    between atoms: _86  and  _87
REMARK   36  A    between atoms: _86  and  _89
REMARK   37  A    between atoms: _89  and  _90
REMARK   38  A    between atoms: _94  and  ZN_303
REMARK   39  A    between atoms: _95  and  _97
REMARK   40  A    between atoms: _97  and  _98
REMARK   41  A    between atoms: _97  and  _100
REMARK   42  A    between atoms: _100  and  _101
REMARK   43  A    between atoms: _102  and  ZN_303
REMARK   44  A    between atoms: _106  and  _108
REMARK   45  A    between atoms: _108  and  _109
REMARK   46  A    between atoms: _112  and  _114
REMARK   47  A    between atoms: _123  and  _124
REMARK   48  A    between atoms: _132  and  _134
REMARK   49  A    between atoms: _134  and  _135
REMARK   50  A    between atoms: _134  and  _137
REMARK   51  A    between atoms: _137  and  _138
REMARK   52  A    between atoms: _144  and  _146
REMARK   53  A    between atoms: _146  and  _147
REMARK   54  A    between atoms: _146  and  _149
REMARK   55  A    between atoms: _149  and  _150
REMARK   56  A    between atoms: _153  and  _155
REMARK   57  A    between atoms: _155  and  _156
REMARK   58  A    between atoms: _155  and  _158
REMARK   59  A    between atoms: _158  and  _159
REMARK   60  A    between atoms: _163  and  ZN_303
REMARK   61  A    between atoms: _164  and  _166
REMARK   62  A    between atoms: _166  and  _167
REMARK   63  A    between atoms: _166  and  _169
REMARK   64  A    between atoms: _169  and  _170
REMARK   65  A    between atoms: _173  and  _175
REMARK   66  A    between atoms: _175  and  _176
REMARK   67  A    between atoms: _175  and  _178
REMARK   68  A    between atoms: _178  and  _179
REMARK   69  A    between atoms: _182  and  _184
REMARK   70  A    between atoms: _184  and  _185
REMARK   71  A    between atoms: _184  and  _187
REMARK   72  A    between atoms: _187  and  _188
REMARK   73  A    between atoms: _190  and  _192
REMARK   74  A    between atoms: _192  and  _193
REMARK   75  A    between atoms: _192  and  _195
REMARK   76  A    between atoms: _195  and  _196
REMARK   77  A    between atoms: _199  and  _201
REMARK   78  A    between atoms: _201  and  _202
REMARK   79  A    between atoms: _201  and  _204
REMARK   80  A    between atoms: _204  and  _205
REMARK   81  A    between atoms: _207  and  _209
REMARK   82  A    between atoms: _209  and  _210
REMARK   83  A    between atoms: _214  and  _215
REMARK   84  A    between atoms: _220  and  _222
REMARK   85  A    between atoms: _222  and  _223
REMARK   86  A    between atoms: _225  and  _227
REMARK   87  A    between atoms: _227  and  _228
REMARK   88  A    between atoms: _227  and  _230
REMARK   89  A    between atoms: _230  and  _231
REMARK   90  A    between atoms: _236  and  _237
REMARK   91  A    between atoms: _239  and  _241
REMARK   92  A    between atoms: _241  and  _242
REMARK   93  A    between atoms: _241  and  _244
REMARK   94  A    between atoms: _244  and  _245
REMARK   95  A    between atoms: _250  and  _251
REMARK   96  A    between atoms: _254  and  _255
REMARK   97  A    between atoms: _260  and  _262
REMARK   98  A    between atoms: _262  and  _263
REMARK   99  A    between atoms: _262  and  _265
REMARK  100  A    between atoms: _265  and  _266
REMARK  101  A    between atoms: _270  and  ZN_304
REMARK  102  A    between atoms: _271  and  _273
REMARK  103  A    between atoms: _273  and  _274
REMARK  104  A    between atoms: _277  and  _279
REMARK  105  A    between atoms: _279  and  _280
REMARK  106  A    between atoms: _279  and  _282
REMARK  107  A    between atoms: _282  and  _283
REMARK  108  A    between atoms: _288  and  _289
REMARK  109  A    between atoms: _291  and  _293
REMARK  110  A    between atoms: _293  and  _294
REMARK  111  A    between atoms: _293  and  _296
REMARK  112  A    between atoms: _296  and  _297
REMARK  113  A    between atoms: _297  and  _298
REMARK                            x       y       z     vdW  Elec       q    Type
REMARK                         _______ _______ _______ _____ _____    ______ ____
ROOT
ATOM      1  O   HOH     1      11.944  27.808  41.077  0.00  0.00    +0.000 OA
ENDROOT
TORSDOF 0
REMARK  Name = ../refined-set-2016/2fu8/2fu8_pocket.pdb
REMARK  113 active torsions:
REMARK  status: ('A' for Active; 'I' for Inactive)
REMARK    1  A    between atoms: _1  and  _3
REMARK    2  A    between atoms: _3  and  _4
REMARK    3  A    between atoms: _3  and  _6
REMARK    4  A    between atoms: _6  and  _7
REMARK    5  A    between atoms: _12  and  _13
REMARK    6  A    between atoms: _15  and  _17
REMARK    7  A    between atoms: _17  and  _18
REMARK    8  A    between atoms: _17  and  _20
REMARK    9  A    between atoms: _20  and  _21
REMARK   10  A    between atoms: _24  and  _26
REMARK   11  A    between atoms: _26  and  _27
REMARK   12  A    between atoms: _26  and  _29
REMARK   13  A    between atoms: _32  and  _34
REMARK   14  A    between atoms: _34  and  _35
REMARK   15  A    between atoms: _34  and  _37
REMARK   16  A    between atoms: _37  and  _38
REMARK   17  A    between atoms: _41  and  _43
REMARK   18  A    between atoms: _43  and  _44
REMARK   19  A    between atoms: _43  and  _46
REMARK   20  A    between atoms: _46  and  _47
REMARK   21  A    between atoms: _57  and  _59
REMARK   22  A    between atoms: _59  and  _60
REMARK   23  A    between atoms: _59  and  _62
REMARK   24  A    between atoms: _62  and  _63
REMARK   25  A    between atoms: _66  and  _68
REMARK   26  A    between atoms: _68  and  _69
REMARK   27  A    between atoms: _68  and  _71
REMARK   28  A    between atoms: _71  and  _72
REMARK   29  A    between atoms: _75  and  _77
REMARK   30  A    between atoms: _77  and  _78
REMARK   31  A    between atoms: _77  and  _80
REMARK   32  A    between atoms: _80  and  _81
REMARK   33  A    between atoms: _81  and  _82
REMARK   34  A    between atoms: _84  and  _86
REMARK   35  A    between atoms: _86  and  _87
REMARK   36  A    between atoms: _86  and  _89
REMARK   37  A    between atoms: _89  and  _90
REMARK   38  A    between atoms: _94  and  ZN_303
REMARK   39  A    between atoms: _95  and  _97
REMARK   40  A    between atoms: _97  and  _98
REMARK   41  A    between atoms: _97  and  _100
REMARK   42  A    between atoms: _100  and  _101
REMARK   43  A    between atoms: _102  and  ZN_303
REMARK   44  A    between atoms: _106  and  _108
REMARK   45  A    between atoms: _108  and  _109
REMARK   46  A    between atoms: _112  and  _114
REMARK   47  A    between atoms: _123  and  _124
REMARK   48  A    between atoms: _132  and  _134
REMARK   49  A    between atoms: _134  and  _135
REMARK   50  A    between atoms: _134  and  _137
REMARK   51  A    between atoms: _137  and  _138
REMARK   52  A    between atoms: _144  and  _146
REMARK   53  A    between atoms: _146  and  _147
REMARK   54  A    between atoms: _146  and  _149
REMARK   55  A    between atoms: _149  and  _150
REMARK   56  A    between atoms: _153  and  _155
REMARK   57  A    between atoms: _155  and  _156
REMARK   58  A    between atoms: _155  and  _158
REMARK   59  A    between atoms: _158  and  _159
REMARK   60  A    between atoms: _163  and  ZN_303
REMARK   61  A    between atoms: _164  and  _166
REMARK   62  A    between atoms: _166  and  _167
REMARK   63  A    between atoms: _166  and  _169
REMARK   64  A    between atoms: _169  and  _170
REMARK   65  A    between atoms: _173  and  _175
REMARK   66  A    between atoms: _175  and  _176
REMARK   67  A    between atoms: _175  and  _178
REMARK   68  A    between atoms: _178  and  _179
REMARK   69  A    between atoms: _182  and  _184
REMARK   70  A    between atoms: _184  and  _185
REMARK   71  A    between atoms: _184  and  _187
REMARK   72  A    between atoms: _187  and  _188
REMARK   73  A    between atoms: _190  and  _192
REMARK   74  A    between atoms: _192  and  _193
REMARK   75  A    between atoms: _192  and  _195
REMARK   76  A    between atoms: _195  and  _196
REMARK   77  A    between atoms: _199  and  _201
REMARK   78  A    between atoms: _201  and  _202
REMARK   79  A    between atoms: _201  and  _204
REMARK   80  A    between atoms: _204  and  _205
REMARK   81  A    between atoms: _207  and  _209
REMARK   82  A    between atoms: _209  and  _210
REMARK   83  A    between atoms: _214  and  _215
REMARK   84  A    between atoms: _220  and  _222
REMARK   85  A    between atoms: _222  and  _223
REMARK   86  A    between atoms: _225  and  _227
REMARK   87  A    between atoms: _227  and  _228
REMARK   88  A    between atoms: _227  and  _230
REMARK   89  A    between atoms: _230  and  _231
REMARK   90  A    between atoms: _236  and  _237
REMARK   91  A    between atoms: _239  and  _241
REMARK   92  A    between atoms: _241  and  _242
REMARK   93  A    between atoms: _241  and  _244
REMARK   94  A    between atoms: _244  and  _245
REMARK   95  A    between atoms: _250  and  _251
REMARK   96  A    between atoms: _254  and  _255
REMARK   97  A    between atoms: _260  and  _262
REMARK   98  A    between atoms: _262  and  _263
REMARK   99  A    between atoms: _262  and  _265
REMARK  100  A    between atoms: _265  and  _266
REMARK  101  A    between atoms: _270  and  ZN_304
REMARK  102  A    between atoms: _271  and  _273
REMARK  103  A    between atoms: _273  and  _274
REMARK  104  A    between atoms: _277  and  _279
REMARK  105  A    between atoms: _279  and  _280
REMARK  106  A    between atoms: _279  and  _282
REMARK  107  A    between atoms: _282  and  _283
REMARK  108  A    between atoms: _288  and  _289
REMARK  109  A    between atoms: _291  and  _293
REMARK  110  A    between atoms: _293  and  _294
REMARK  111  A    between atoms: _293  and  _296
REMARK  112  A    between atoms: _296  and  _297
REMARK  113  A    between atoms: _297  and  _298
REMARK                            x       y       z     vdW  Elec       q    Type
REMARK                         _______ _______ _______ _____ _____    ______ ____
ROOT
ATOM      1  O   HOH     1      20.056  25.158  33.075  0.00  0.00    +0.000 OA
ENDROOT
TORSDOF 0
REMARK  Name = ../refined-set-2016/2fu8/2fu8_pocket.pdb
REMARK  113 active torsions:
REMARK  status: ('A' for Active; 'I' for Inactive)
REMARK    1  A    between atoms: _1  and  _3
REMARK    2  A    between atoms: _3  and  _4
REMARK    3  A    between atoms: _3  and  _6
REMARK    4  A    between atoms: _6  and  _7
REMARK    5  A    between atoms: _12  and  _13
REMARK    6  A    between atoms: _15  and  _17
REMARK    7  A    between atoms: _17  and  _18
REMARK    8  A    between atoms: _17  and  _20
REMARK    9  A    between atoms: _20  and  _21
REMARK   10  A    between atoms: _24  and  _26
REMARK   11  A    between atoms: _26  and  _27
REMARK   12  A    between atoms: _26  and  _29
REMARK   13  A    between atoms: _32  and  _34
REMARK   14  A    between atoms: _34  and  _35
REMARK   15  A    between atoms: _34  and  _37
REMARK   16  A    between atoms: _37  and  _38
REMARK   17  A    between atoms: _41  and  _43
REMARK   18  A    between atoms: _43  and  _44
REMARK   19  A    between atoms: _43  and  _46
REMARK   20  A    between atoms: _46  and  _47
REMARK   21  A    between atoms: _57  and  _59
REMARK   22  A    between atoms: _59  and  _60
REMARK   23  A    between atoms: _59  and  _62
REMARK   24  A    between atoms: _62  and  _63
REMARK   25  A    between atoms: _66  and  _68
REMARK   26  A    between atoms: _68  and  _69
REMARK   27  A    between atoms: _68  and  _71
REMARK   28  A    between atoms: _71  and  _72
REMARK   29  A    between atoms: _75  and  _77
REMARK   30  A    between atoms: _77  and  _78
REMARK   31  A    between atoms: _77  and  _80
REMARK   32  A    between atoms: _80  and  _81
REMARK   33  A    between atoms: _81  and  _82
REMARK   34  A    between atoms: _84  and  _86
REMARK   35  A    between atoms: _86  and  _87
REMARK   36  A    between atoms: _86  and  _89
REMARK   37  A    between atoms: _89  and  _90
REMARK   38  A    between atoms: _94  and  ZN_303
REMARK   39  A    between atoms: _95  and  _97
REMARK   40  A    between atoms: _97  and  _98
REMARK   41  A    between atoms: _97  and  _100
REMARK   42  A    between atoms: _100  and  _101
REMARK   43  A    between atoms: _102  and  ZN_303
REMARK   44  A    between atoms: _106  and  _108
REMARK   45  A    between atoms: _108  and  _109
REMARK   46  A    between atoms: _112  and  _114
REMARK   47  A    between atoms: _123  and  _124
REMARK   48  A    between atoms: _132  and  _134
REMARK   49  A    between atoms: _134  and  _135
REMARK   50  A    between atoms: _134  and  _137
REMARK   51  A    between atoms: _137  and  _138
REMARK   52  A    between atoms: _144  and  _146
REMARK   53  A    between atoms: _146  and  _147
REMARK   54  A    between atoms: _146  and  _149
REMARK   55  A    between atoms: _149  and  _150
REMARK   56  A    between atoms: _153  and  _155
REMARK   57  A    between atoms: _155  and  _156
REMARK   58  A    between atoms: _155  and  _158
REMARK   59  A    between atoms: _158  and  _159
REMARK   60  A    between atoms: _163  and  ZN_303
REMARK   61  A    between atoms: _164  and  _166
REMARK   62  A    between atoms: _166  and  _167
REMARK   63  A    between atoms: _166  and  _169
REMARK   64  A    between atoms: _169  and  _170
REMARK   65  A    between atoms: _173  and  _175
REMARK   66  A    between atoms: _175  and  _176
REMARK   67  A    between atoms: _175  and  _178
REMARK   68  A    between atoms: _178  and  _179
REMARK   69  A    between atoms: _182  and  _184
REMARK   70  A    between atoms: _184  and  _185
REMARK   71  A    between atoms: _184  and  _187
REMARK   72  A    between atoms: _187  and  _188
REMARK   73  A    between atoms: _190  and  _192
REMARK   74  A    between atoms: _192  and  _193
REMARK   75  A    between atoms: _192  and  _195
REMARK   76  A    between atoms: _195  and  _196
REMARK   77  A    between atoms: _199  and  _201
REMARK   78  A    between atoms: _201  and  _202
REMARK   79  A    between atoms: _201  and  _204
REMARK   80  A    between atoms: _204  and  _205
REMARK   81  A    between atoms: _207  and  _209
REMARK   82  A    between atoms: _209  and  _210
REMARK   83  A    between atoms: _214  and  _215
REMARK   84  A    between atoms: _220  and  _222
REMARK   85  A    between atoms: _222  and  _223
REMARK   86  A    between atoms: _225  and  _227
REMARK   87  A    between atoms: _227  and  _228
REMARK   88  A    between atoms: _227  and  _230
REMARK   89  A    between atoms: _230  and  _231
REMARK   90  A    between atoms: _236  and  _237
REMARK   91  A    between atoms: _239  and  _241
REMARK   92  A    between atoms: _241  and  _242
REMARK   93  A    between atoms: _241  and  _244
REMARK   94  A    between atoms: _244  and  _245
REMARK   95  A    between atoms: _250  and  _251
REMARK   96  A    between atoms: _254  and  _255
REMARK   97  A    between atoms: _260  and  _262
REMARK   98  A    between atoms: _262  and  _263
REMARK   99  A    between atoms: _262  and  _265
REMARK  100  A    between atoms: _265  and  _266
REMARK  101  A    between atoms: _270  and  ZN_304
REMARK  102  A    between atoms: _271  and  _273
REMARK  103  A    between atoms: _273  and  _274
REMARK  104  A    between atoms: _277  and  _279
REMARK  105  A    between atoms: _279  and  _280
REMARK  106  A    between atoms: _279  and  _282
REMARK  107  A    between atoms: _282  and  _283
REMARK  108  A    between atoms: _288  and  _289
REMARK  109  A    between atoms: _291  and  _293
REMARK  110  A    between atoms: _293  and  _294
REMARK  111  A    between atoms: _293  and  _296
REMARK  112  A    between atoms: _296  and  _297
REMARK  113  A    between atoms: _297  and  _298
REMARK                            x       y       z     vdW  Elec       q    Type
REMARK                         _______ _______ _______ _____ _____    ______ ____
ROOT
ATOM      1  O   HOH     1      10.537  28.132  38.661  0.00  0.00    +0.000 OA
ENDROOT
TORSDOF 0
REMARK  Name = ../refined-set-2016/2fu8/2fu8_pocket.pdb
REMARK  113 active torsions:
REMARK  status: ('A' for Active; 'I' for Inactive)
REMARK    1  A    between atoms: _1  and  _3
REMARK    2  A    between atoms: _3  and  _4
REMARK    3  A    between atoms: _3  and  _6
REMARK    4  A    between atoms: _6  and  _7
REMARK    5  A    between atoms: _12  and  _13
REMARK    6  A    between atoms: _15  and  _17
REMARK    7  A    between atoms: _17  and  _18
REMARK    8  A    between atoms: _17  and  _20
REMARK    9  A    between atoms: _20  and  _21
REMARK   10  A    between atoms: _24  and  _26
REMARK   11  A    between atoms: _26  and  _27
REMARK   12  A    between atoms: _26  and  _29
REMARK   13  A    between atoms: _32  and  _34
REMARK   14  A    between atoms: _34  and  _35
REMARK   15  A    between atoms: _34  and  _37
REMARK   16  A    between atoms: _37  and  _38
REMARK   17  A    between atoms: _41  and  _43
REMARK   18  A    between atoms: _43  and  _44
REMARK   19  A    between atoms: _43  and  _46
REMARK   20  A    between atoms: _46  and  _47
REMARK   21  A    between atoms: _57  and  _59
REMARK   22  A    between atoms: _59  and  _60
REMARK   23  A    between atoms: _59  and  _62
REMARK   24  A    between atoms: _62  and  _63
REMARK   25  A    between atoms: _66  and  _68
REMARK   26  A    between atoms: _68  and  _69
REMARK   27  A    between atoms: _68  and  _71
REMARK   28  A    between atoms: _71  and  _72
REMARK   29  A    between atoms: _75  and  _77
REMARK   30  A    between atoms: _77  and  _78
REMARK   31  A    between atoms: _77  and  _80
REMARK   32  A    between atoms: _80  and  _81
REMARK   33  A    between atoms: _81  and  _82
REMARK   34  A    between atoms: _84  and  _86
REMARK   35  A    between atoms: _86  and  _87
REMARK   36  A    between atoms: _86  and  _89
REMARK   37  A    between atoms: _89  and  _90
REMARK   38  A    between atoms: _94  and  ZN_303
REMARK   39  A    between atoms: _95  and  _97
REMARK   40  A    between atoms: _97  and  _98
REMARK   41  A    between atoms: _97  and  _100
REMARK   42  A    between atoms: _100  and  _101
REMARK   43  A    between atoms: _102  and  ZN_303
REMARK   44  A    between atoms: _106  and  _108
REMARK   45  A    between atoms: _108  and  _109
REMARK   46  A    between atoms: _112  and  _114
REMARK   47  A    between atoms: _123  and  _124
REMARK   48  A    between atoms: _132  and  _134
REMARK   49  A    between atoms: _134  and  _135
REMARK   50  A    between atoms: _134  and  _137
REMARK   51  A    between atoms: _137  and  _138
REMARK   52  A    between atoms: _144  and  _146
REMARK   53  A    between atoms: _146  and  _147
REMARK   54  A    between atoms: _146  and  _149
REMARK   55  A    between atoms: _149  and  _150
REMARK   56  A    between atoms: _153  and  _155
REMARK   57  A    between atoms: _155  and  _156
REMARK   58  A    between atoms: _155  and  _158
REMARK   59  A    between atoms: _158  and  _159
REMARK   60  A    between atoms: _163  and  ZN_303
REMARK   61  A    between atoms: _164  and  _166
REMARK   62  A    between atoms: _166  and  _167
REMARK   63  A    between atoms: _166  and  _169
REMARK   64  A    between atoms: _169  and  _170
REMARK   65  A    between atoms: _173  and  _175
REMARK   66  A    between atoms: _175  and  _176
REMARK   67  A    between atoms: _175  and  _178
REMARK   68  A    between atoms: _178  and  _179
REMARK   69  A    between atoms: _182  and  _184
REMARK   70  A    between atoms: _184  and  _185
REMARK   71  A    between atoms: _184  and  _187
REMARK   72  A    between atoms: _187  and  _188
REMARK   73  A    between atoms: _190  and  _192
REMARK   74  A    between atoms: _192  and  _193
REMARK   75  A    between atoms: _192  and  _195
REMARK   76  A    between atoms: _195  and  _196
REMARK   77  A    between atoms: _199  and  _201
REMARK   78  A    between atoms: _201  and  _202
REMARK   79  A    between atoms: _201  and  _204
REMARK   80  A    between atoms: _204  and  _205
REMARK   81  A    between atoms: _207  and  _209
REMARK   82  A    between atoms: _209  and  _210
REMARK   83  A    between atoms: _214  and  _215
REMARK   84  A    between atoms: _220  and  _222
REMARK   85  A    between atoms: _222  and  _223
REMARK   86  A    between atoms: _225  and  _227
REMARK   87  A    between atoms: _227  and  _228
REMARK   88  A    between atoms: _227  and  _230
REMARK   89  A    between atoms: _230  and  _231
REMARK   90  A    between atoms: _236  and  _237
REMARK   91  A    between atoms: _239  and  _241
REMARK   92  A    between atoms: _241  and  _242
REMARK   93  A    between atoms: _241  and  _244
REMARK   94  A    between atoms: _244  and  _245
REMARK   95  A    between atoms: _250  and  _251
REMARK   96  A    between atoms: _254  and  _255
REMARK   97  A    between atoms: _260  and  _262
REMARK   98  A    between atoms: _262  and  _263
REMARK   99  A    between atoms: _262  and  _265
REMARK  100  A    between atoms: _265  and  _266
REMARK  101  A    between atoms: _270  and  ZN_304
REMARK  102  A    between atoms: _271  and  _273
REMARK  103  A    between atoms: _273  and  _274
REMARK  104  A    between atoms: _277  and  _279
REMARK  105  A    between atoms: _279  and  _280
REMARK  106  A    between atoms: _279  and  _282
REMARK  107  A    between atoms: _282  and  _283
REMARK  108  A    between atoms: _288  and  _289
REMARK  109  A    between atoms: _291  and  _293
REMARK  110  A    between atoms: _293  and  _294
REMARK  111  A    between atoms: _293  and  _296
REMARK  112  A    between atoms: _296  and  _297
REMARK  113  A    between atoms: _297  and  _298
REMARK                            x       y       z     vdW  Elec       q    Type
REMARK                         _______ _______ _______ _____ _____    ______ ____
ROOT
ATOM      1  O   HOH     1       8.035  29.909  37.984  0.00  0.00    +0.000 OA
ENDROOT
TORSDOF 0
REMARK  Name = ../refined-set-2016/2fu8/2fu8_pocket.pdb
REMARK  113 active torsions:
REMARK  status: ('A' for Active; 'I' for Inactive)
REMARK    1  A    between atoms: _1  and  _3
REMARK    2  A    between atoms: _3  and  _4
REMARK    3  A    between atoms: _3  and  _6
REMARK    4  A    between atoms: _6  and  _7
REMARK    5  A    between atoms: _12  and  _13
REMARK    6  A    between atoms: _15  and  _17
REMARK    7  A    between atoms: _17  and  _18
REMARK    8  A    between atoms: _17  and  _20
REMARK    9  A    between atoms: _20  and  _21
REMARK   10  A    between atoms: _24  and  _26
REMARK   11  A    between atoms: _26  and  _27
REMARK   12  A    between atoms: _26  and  _29
REMARK   13  A    between atoms: _32  and  _34
REMARK   14  A    between atoms: _34  and  _35
REMARK   15  A    between atoms: _34  and  _37
REMARK   16  A    between atoms: _37  and  _38
REMARK   17  A    between atoms: _41  and  _43
REMARK   18  A    between atoms: _43  and  _44
REMARK   19  A    between atoms: _43  and  _46
REMARK   20  A    between atoms: _46  and  _47
REMARK   21  A    between atoms: _57  and  _59
REMARK   22  A    between atoms: _59  and  _60
REMARK   23  A    between atoms: _59  and  _62
REMARK   24  A    between atoms: _62  and  _63
REMARK   25  A    between atoms: _66  and  _68
REMARK   26  A    between atoms: _68  and  _69
REMARK   27  A    between atoms: _68  and  _71
REMARK   28  A    between atoms: _71  and  _72
REMARK   29  A    between atoms: _75  and  _77
REMARK   30  A    between atoms: _77  and  _78
REMARK   31  A    between atoms: _77  and  _80
REMARK   32  A    between atoms: _80  and  _81
REMARK   33  A    between atoms: _81  and  _82
REMARK   34  A    between atoms: _84  and  _86
REMARK   35  A    between atoms: _86  and  _87
REMARK   36  A    between atoms: _86  and  _89
REMARK   37  A    between atoms: _89  and  _90
REMARK   38  A    between atoms: _94  and  ZN_303
REMARK   39  A    between atoms: _95  and  _97
REMARK   40  A    between atoms: _97  and  _98
REMARK   41  A    between atoms: _97  and  _100
REMARK   42  A    between atoms: _100  and  _101
REMARK   43  A    between atoms: _102  and  ZN_303
REMARK   44  A    between atoms: _106  and  _108
REMARK   45  A    between atoms: _108  and  _109
REMARK   46  A    between atoms: _112  and  _114
REMARK   47  A    between atoms: _123  and  _124
REMARK   48  A    between atoms: _132  and  _134
REMARK   49  A    between atoms: _134  and  _135
REMARK   50  A    between atoms: _134  and  _137
REMARK   51  A    between atoms: _137  and  _138
REMARK   52  A    between atoms: _144  and  _146
REMARK   53  A    between atoms: _146  and  _147
REMARK   54  A    between atoms: _146  and  _149
REMARK   55  A    between atoms: _149  and  _150
REMARK   56  A    between atoms: _153  and  _155
REMARK   57  A    between atoms: _155  and  _156
REMARK   58  A    between atoms: _155  and  _158
REMARK   59  A    between atoms: _158  and  _159
REMARK   60  A    between atoms: _163  and  ZN_303
REMARK   61  A    between atoms: _164  and  _166
REMARK   62  A    between atoms: _166  and  _167
REMARK   63  A    between atoms: _166  and  _169
REMARK   64  A    between atoms: _169  and  _170
REMARK   65  A    between atoms: _173  and  _175
REMARK   66  A    between atoms: _175  and  _176
REMARK   67  A    between atoms: _175  and  _178
REMARK   68  A    between atoms: _178  and  _179
REMARK   69  A    between atoms: _182  and  _184
REMARK   70  A    between atoms: _184  and  _185
REMARK   71  A    between atoms: _184  and  _187
REMARK   72  A    between atoms: _187  and  _188
REMARK   73  A    between atoms: _190  and  _192
REMARK   74  A    between atoms: _192  and  _193
REMARK   75  A    between atoms: _192  and  _195
REMARK   76  A    between atoms: _195  and  _196
REMARK   77  A    between atoms: _199  and  _201
REMARK   78  A    between atoms: _201  and  _202
REMARK   79  A    between atoms: _201  and  _204
REMARK   80  A    between atoms: _204  and  _205
REMARK   81  A    between atoms: _207  and  _209
REMARK   82  A    between atoms: _209  and  _210
REMARK   83  A    between atoms: _214  and  _215
REMARK   84  A    between atoms: _220  and  _222
REMARK   85  A    between atoms: _222  and  _223
REMARK   86  A    between atoms: _225  and  _227
REMARK   87  A    between atoms: _227  and  _228
REMARK   88  A    between atoms: _227  and  _230
REMARK   89  A    between atoms: _230  and  _231
REMARK   90  A    between atoms: _236  and  _237
REMARK   91  A    between atoms: _239  and  _241
REMARK   92  A    between atoms: _241  and  _242
REMARK   93  A    between atoms: _241  and  _244
REMARK   94  A    between atoms: _244  and  _245
REMARK   95  A    between atoms: _250  and  _251
REMARK   96  A    between atoms: _254  and  _255
REMARK   97  A    between atoms: _260  and  _262
REMARK   98  A    between atoms: _262  and  _263
REMARK   99  A    between atoms: _262  and  _265
REMARK  100  A    between atoms: _265  and  _266
REMARK  101  A    between atoms: _270  and  ZN_304
REMARK  102  A    between atoms: _271  and  _273
REMARK  103  A    between atoms: _273  and  _274
REMARK  104  A    between atoms: _277  and  _279
REMARK  105  A    between atoms: _279  and  _280
REMARK  106  A    between atoms: _279  and  _282
REMARK  107  A    between atoms: _282  and  _283
REMARK  108  A    between atoms: _288  and  _289
REMARK  109  A    between atoms: _291  and  _293
REMARK  110  A    between atoms: _293  and  _294
REMARK  111  A    between atoms: _293  and  _296
REMARK  112  A    between atoms: _296  and  _297
REMARK  113  A    between atoms: _297  and  _298
REMARK                            x       y       z     vdW  Elec       q    Type
REMARK                         _______ _______ _______ _____ _____    ______ ____
ROOT
ATOM      1  O   HOH     1      12.087  22.617  24.571  0.00  0.00    +0.000 OA
ENDROOT
TORSDOF 0
REMARK  Name = ../refined-set-2016/2fu8/2fu8_pocket.pdb
REMARK  113 active torsions:
REMARK  status: ('A' for Active; 'I' for Inactive)
REMARK    1  A    between atoms: _1  and  _3
REMARK    2  A    between atoms: _3  and  _4
REMARK    3  A    between atoms: _3  and  _6
REMARK    4  A    between atoms: _6  and  _7
REMARK    5  A    between atoms: _12  and  _13
REMARK    6  A    between atoms: _15  and  _17
REMARK    7  A    between atoms: _17  and  _18
REMARK    8  A    between atoms: _17  and  _20
REMARK    9  A    between atoms: _20  and  _21
REMARK   10  A    between atoms: _24  and  _26
REMARK   11  A    between atoms: _26  and  _27
REMARK   12  A    between atoms: _26  and  _29
REMARK   13  A    between atoms: _32  and  _34
REMARK   14  A    between atoms: _34  and  _35
REMARK   15  A    between atoms: _34  and  _37
REMARK   16  A    between atoms: _37  and  _38
REMARK   17  A    between atoms: _41  and  _43
REMARK   18  A    between atoms: _43  and  _44
REMARK   19  A    between atoms: _43  and  _46
REMARK   20  A    between atoms: _46  and  _47
REMARK   21  A    between atoms: _57  and  _59
REMARK   22  A    between atoms: _59  and  _60
REMARK   23  A    between atoms: _59  and  _62
REMARK   24  A    between atoms: _62  and  _63
REMARK   25  A    between atoms: _66  and  _68
REMARK   26  A    between atoms: _68  and  _69
REMARK   27  A    between atoms: _68  and  _71
REMARK   28  A    between atoms: _71  and  _72
REMARK   29  A    between atoms: _75  and  _77
REMARK   30  A    between atoms: _77  and  _78
REMARK   31  A    between atoms: _77  and  _80
REMARK   32  A    between atoms: _80  and  _81
REMARK   33  A    between atoms: _81  and  _82
REMARK   34  A    between atoms: _84  and  _86
REMARK   35  A    between atoms: _86  and  _87
REMARK   36  A    between atoms: _86  and  _89
REMARK   37  A    between atoms: _89  and  _90
REMARK   38  A    between atoms: _94  and  ZN_303
REMARK   39  A    between atoms: _95  and  _97
REMARK   40  A    between atoms: _97  and  _98
REMARK   41  A    between atoms: _97  and  _100
REMARK   42  A    between atoms: _100  and  _101
REMARK   43  A    between atoms: _102  and  ZN_303
REMARK   44  A    between atoms: _106  and  _108
REMARK   45  A    between atoms: _108  and  _109
REMARK   46  A    between atoms: _112  and  _114
REMARK   47  A    between atoms: _123  and  _124
REMARK   48  A    between atoms: _132  and  _134
REMARK   49  A    between atoms: _134  and  _135
REMARK   50  A    between atoms: _134  and  _137
REMARK   51  A    between atoms: _137  and  _138
REMARK   52  A    between atoms: _144  and  _146
REMARK   53  A    between atoms: _146  and  _147
REMARK   54  A    between atoms: _146  and  _149
REMARK   55  A    between atoms: _149  and  _150
REMARK   56  A    between atoms: _153  and  _155
REMARK   57  A    between atoms: _155  and  _156
REMARK   58  A    between atoms: _155  and  _158
REMARK   59  A    between atoms: _158  and  _159
REMARK   60  A    between atoms: _163  and  ZN_303
REMARK   61  A    between atoms: _164  and  _166
REMARK   62  A    between atoms: _166  and  _167
REMARK   63  A    between atoms: _166  and  _169
REMARK   64  A    between atoms: _169  and  _170
REMARK   65  A    between atoms: _173  and  _175
REMARK   66  A    between atoms: _175  and  _176
REMARK   67  A    between atoms: _175  and  _178
REMARK   68  A    between atoms: _178  and  _179
REMARK   69  A    between atoms: _182  and  _184
REMARK   70  A    between atoms: _184  and  _185
REMARK   71  A    between atoms: _184  and  _187
REMARK   72  A    between atoms: _187  and  _188
REMARK   73  A    between atoms: _190  and  _192
REMARK   74  A    between atoms: _192  and  _193
REMARK   75  A    between atoms: _192  and  _195
REMARK   76  A    between atoms: _195  and  _196
REMARK   77  A    between atoms: _199  and  _201
REMARK   78  A    between atoms: _201  and  _202
REMARK   79  A    between atoms: _201  and  _204
REMARK   80  A    between atoms: _204  and  _205
REMARK   81  A    between atoms: _207  and  _209
REMARK   82  A    between atoms: _209  and  _210
REMARK   83  A    between atoms: _214  and  _215
REMARK   84  A    between atoms: _220  and  _222
REMARK   85  A    between atoms: _222  and  _223
REMARK   86  A    between atoms: _225  and  _227
REMARK   87  A    between atoms: _227  and  _228
REMARK   88  A    between atoms: _227  and  _230
REMARK   89  A    between atoms: _230  and  _231
REMARK   90  A    between atoms: _236  and  _237
REMARK   91  A    between atoms: _239  and  _241
REMARK   92  A    between atoms: _241  and  _242
REMARK   93  A    between atoms: _241  and  _244
REMARK   94  A    between atoms: _244  and  _245
REMARK   95  A    between atoms: _250  and  _251
REMARK   96  A    between atoms: _254  and  _255
REMARK   97  A    between atoms: _260  and  _262
REMARK   98  A    between atoms: _262  and  _263
REMARK   99  A    between atoms: _262  and  _265
REMARK  100  A    between atoms: _265  and  _266
REMARK  101  A    between atoms: _270  and  ZN_304
REMARK  102  A    between atoms: _271  and  _273
REMARK  103  A    between atoms: _273  and  _274
REMARK  104  A    between atoms: _277  and  _279
REMARK  105  A    between atoms: _279  and  _280
REMARK  106  A    between atoms: _279  and  _282
REMARK  107  A    between atoms: _282  and  _283
REMARK  108  A    between atoms: _288  and  _289
REMARK  109  A    between atoms: _291  and  _293
REMARK  110  A    between atoms: _293  and  _294
REMARK  111  A    between atoms: _293  and  _296
REMARK  112  A    between atoms: _296  and  _297
REMARK  113  A    between atoms: _297  and  _298
REMARK                            x       y       z     vdW  Elec       q    Type
REMARK                         _______ _______ _______ _____ _____    ______ ____
ROOT
ATOM      1  O   HOH     1       9.395  24.260  27.834  0.00  0.00    +0.000 OA
ENDROOT
TORSDOF 0
REMARK  Name = ../refined-set-2016/2fu8/2fu8_pocket.pdb
REMARK  113 active torsions:
REMARK  status: ('A' for Active; 'I' for Inactive)
REMARK    1  A    between atoms: _1  and  _3
REMARK    2  A    between atoms: _3  and  _4
REMARK    3  A    between atoms: _3  and  _6
REMARK    4  A    between atoms: _6  and  _7
REMARK    5  A    between atoms: _12  and  _13
REMARK    6  A    between atoms: _15  and  _17
REMARK    7  A    between atoms: _17  and  _18
REMARK    8  A    between atoms: _17  and  _20
REMARK    9  A    between atoms: _20  and  _21
REMARK   10  A    between atoms: _24  and  _26
REMARK   11  A    between atoms: _26  and  _27
REMARK   12  A    between atoms: _26  and  _29
REMARK   13  A    between atoms: _32  and  _34
REMARK   14  A    between atoms: _34  and  _35
REMARK   15  A    between atoms: _34  and  _37
REMARK   16  A    between atoms: _37  and  _38
REMARK   17  A    between atoms: _41  and  _43
REMARK   18  A    between atoms: _43  and  _44
REMARK   19  A    between atoms: _43  and  _46
REMARK   20  A    between atoms: _46  and  _47
REMARK   21  A    between atoms: _57  and  _59
REMARK   22  A    between atoms: _59  and  _60
REMARK   23  A    between atoms: _59  and  _62
REMARK   24  A    between atoms: _62  and  _63
REMARK   25  A    between atoms: _66  and  _68
REMARK   26  A    between atoms: _68  and  _69
REMARK   27  A    between atoms: _68  and  _71
REMARK   28  A    between atoms: _71  and  _72
REMARK   29  A    between atoms: _75  and  _77
REMARK   30  A    between atoms: _77  and  _78
REMARK   31  A    between atoms: _77  and  _80
REMARK   32  A    between atoms: _80  and  _81
REMARK   33  A    between atoms: _81  and  _82
REMARK   34  A    between atoms: _84  and  _86
REMARK   35  A    between atoms: _86  and  _87
REMARK   36  A    between atoms: _86  and  _89
REMARK   37  A    between atoms: _89  and  _90
REMARK   38  A    between atoms: _94  and  ZN_303
REMARK   39  A    between atoms: _95  and  _97
REMARK   40  A    between atoms: _97  and  _98
REMARK   41  A    between atoms: _97  and  _100
REMARK   42  A    between atoms: _100  and  _101
REMARK   43  A    between atoms: _102  and  ZN_303
REMARK   44  A    between atoms: _106  and  _108
REMARK   45  A    between atoms: _108  and  _109
REMARK   46  A    between atoms: _112  and  _114
REMARK   47  A    between atoms: _123  and  _124
REMARK   48  A    between atoms: _132  and  _134
REMARK   49  A    between atoms: _134  and  _135
REMARK   50  A    between atoms: _134  and  _137
REMARK   51  A    between atoms: _137  and  _138
REMARK   52  A    between atoms: _144  and  _146
REMARK   53  A    between atoms: _146  and  _147
REMARK   54  A    between atoms: _146  and  _149
REMARK   55  A    between atoms: _149  and  _150
REMARK   56  A    between atoms: _153  and  _155
REMARK   57  A    between atoms: _155  and  _156
REMARK   58  A    between atoms: _155  and  _158
REMARK   59  A    between atoms: _158  and  _159
REMARK   60  A    between atoms: _163  and  ZN_303
REMARK   61  A    between atoms: _164  and  _166
REMARK   62  A    between atoms: _166  and  _167
REMARK   63  A    between atoms: _166  and  _169
REMARK   64  A    between atoms: _169  and  _170
REMARK   65  A    between atoms: _173  and  _175
REMARK   66  A    between atoms: _175  and  _176
REMARK   67  A    between atoms: _175  and  _178
REMARK   68  A    between atoms: _178  and  _179
REMARK   69  A    between atoms: _182  and  _184
REMARK   70  A    between atoms: _184  and  _185
REMARK   71  A    between atoms: _184  and  _187
REMARK   72  A    between atoms: _187  and  _188
REMARK   73  A    between atoms: _190  and  _192
REMARK   74  A    between atoms: _192  and  _193
REMARK   75  A    between atoms: _192  and  _195
REMARK   76  A    between atoms: _195  and  _196
REMARK   77  A    between atoms: _199  and  _201
REMARK   78  A    between atoms: _201  and  _202
REMARK   79  A    between atoms: _201  and  _204
REMARK   80  A    between atoms: _204  and  _205
REMARK   81  A    between atoms: _207  and  _209
REMARK   82  A    between atoms: _209  and  _210
REMARK   83  A    between atoms: _214  and  _215
REMARK   84  A    between atoms: _220  and  _222
REMARK   85  A    between atoms: _222  and  _223
REMARK   86  A    between atoms: _225  and  _227
REMARK   87  A    between atoms: _227  and  _228
REMARK   88  A    between atoms: _227  and  _230
REMARK   89  A    between atoms: _230  and  _231
REMARK   90  A    between atoms: _236  and  _237
REMARK   91  A    between atoms: _239  and  _241
REMARK   92  A    between atoms: _241  and  _242
REMARK   93  A    between atoms: _241  and  _244
REMARK   94  A    between atoms: _244  and  _245
REMARK   95  A    between atoms: _250  and  _251
REMARK   96  A    between atoms: _254  and  _255
REMARK   97  A    between atoms: _260  and  _262
REMARK   98  A    between atoms: _262  and  _263
REMARK   99  A    between atoms: _262  and  _265
REMARK  100  A    between atoms: _265  and  _266
REMARK  101  A    between atoms: _270  and  ZN_304
REMARK  102  A    between atoms: _271  and  _273
REMARK  103  A    between atoms: _273  and  _274
REMARK  104  A    between atoms: _277  and  _279
REMARK  105  A    between atoms: _279  and  _280
REMARK  106  A    between atoms: _279  and  _282
REMARK  107  A    between atoms: _282  and  _283
REMARK  108  A    between atoms: _288  and  _289
REMARK  109  A    between atoms: _291  and  _293
REMARK  110  A    between atoms: _293  and  _294
REMARK  111  A    between atoms: _293  and  _296
REMARK  112  A    between atoms: _296  and  _297
REMARK  113  A    between atoms: _297  and  _298
REMARK                            x       y       z     vdW  Elec       q    Type
REMARK                         _______ _______ _______ _____ _____    ______ ____
ROOT
ATOM      1  O   HOH     1       3.095  25.858  32.856  0.00  0.00    +0.000 OA
ENDROOT
TORSDOF 0
REMARK  Name = ../refined-set-2016/2fu8/2fu8_pocket.pdb
REMARK  113 active torsions:
REMARK  status: ('A' for Active; 'I' for Inactive)
REMARK    1  A    between atoms: _1  and  _3
REMARK    2  A    between atoms: _3  and  _4
REMARK    3  A    between atoms: _3  and  _6
REMARK    4  A    between atoms: _6  and  _7
REMARK    5  A    between atoms: _12  and  _13
REMARK    6  A    between atoms: _15  and  _17
REMARK    7  A    between atoms: _17  and  _18
REMARK    8  A    between atoms: _17  and  _20
REMARK    9  A    between atoms: _20  and  _21
REMARK   10  A    between atoms: _24  and  _26
REMARK   11  A    between atoms: _26  and  _27
REMARK   12  A    between atoms: _26  and  _29
REMARK   13  A    between atoms: _32  and  _34
REMARK   14  A    between atoms: _34  and  _35
REMARK   15  A    between atoms: _34  and  _37
REMARK   16  A    between atoms: _37  and  _38
REMARK   17  A    between atoms: _41  and  _43
REMARK   18  A    between atoms: _43  and  _44
REMARK   19  A    between atoms: _43  and  _46
REMARK   20  A    between atoms: _46  and  _47
REMARK   21  A    between atoms: _57  and  _59
REMARK   22  A    between atoms: _59  and  _60
REMARK   23  A    between atoms: _59  and  _62
REMARK   24  A    between atoms: _62  and  _63
REMARK   25  A    between atoms: _66  and  _68
REMARK   26  A    between atoms: _68  and  _69
REMARK   27  A    between atoms: _68  and  _71
REMARK   28  A    between atoms: _71  and  _72
REMARK   29  A    between atoms: _75  and  _77
REMARK   30  A    between atoms: _77  and  _78
REMARK   31  A    between atoms: _77  and  _80
REMARK   32  A    between atoms: _80  and  _81
REMARK   33  A    between atoms: _81  and  _82
REMARK   34  A    between atoms: _84  and  _86
REMARK   35  A    between atoms: _86  and  _87
REMARK   36  A    between atoms: _86  and  _89
REMARK   37  A    between atoms: _89  and  _90
REMARK   38  A    between atoms: _94  and  ZN_303
REMARK   39  A    between atoms: _95  and  _97
REMARK   40  A    between atoms: _97  and  _98
REMARK   41  A    between atoms: _97  and  _100
REMARK   42  A    between atoms: _100  and  _101
REMARK   43  A    between atoms: _102  and  ZN_303
REMARK   44  A    between atoms: _106  and  _108
REMARK   45  A    between atoms: _108  and  _109
REMARK   46  A    between atoms: _112  and  _114
REMARK   47  A    between atoms: _123  and  _124
REMARK   48  A    between atoms: _132  and  _134
REMARK   49  A    between atoms: _134  and  _135
REMARK   50  A    between atoms: _134  and  _137
REMARK   51  A    between atoms: _137  and  _138
REMARK   52  A    between atoms: _144  and  _146
REMARK   53  A    between atoms: _146  and  _147
REMARK   54  A    between atoms: _146  and  _149
REMARK   55  A    between atoms: _149  and  _150
REMARK   56  A    between atoms: _153  and  _155
REMARK   57  A    between atoms: _155  and  _156
REMARK   58  A    between atoms: _155  and  _158
REMARK   59  A    between atoms: _158  and  _159
REMARK   60  A    between atoms: _163  and  ZN_303
REMARK   61  A    between atoms: _164  and  _166
REMARK   62  A    between atoms: _166  and  _167
REMARK   63  A    between atoms: _166  and  _169
REMARK   64  A    between atoms: _169  and  _170
REMARK   65  A    between atoms: _173  and  _175
REMARK   66  A    between atoms: _175  and  _176
REMARK   67  A    between atoms: _175  and  _178
REMARK   68  A    between atoms: _178  and  _179
REMARK   69  A    between atoms: _182  and  _184
REMARK   70  A    between atoms: _184  and  _185
REMARK   71  A    between atoms: _184  and  _187
REMARK   72  A    between atoms: _187  and  _188
REMARK   73  A    between atoms: _190  and  _192
REMARK   74  A    between atoms: _192  and  _193
REMARK   75  A    between atoms: _192  and  _195
REMARK   76  A    between atoms: _195  and  _196
REMARK   77  A    between atoms: _199  and  _201
REMARK   78  A    between atoms: _201  and  _202
REMARK   79  A    between atoms: _201  and  _204
REMARK   80  A    between atoms: _204  and  _205
REMARK   81  A    between atoms: _207  and  _209
REMARK   82  A    between atoms: _209  and  _210
REMARK   83  A    between atoms: _214  and  _215
REMARK   84  A    between atoms: _220  and  _222
REMARK   85  A    between atoms: _222  and  _223
REMARK   86  A    between atoms: _225  and  _227
REMARK   87  A    between atoms: _227  and  _228
REMARK   88  A    between atoms: _227  and  _230
REMARK   89  A    between atoms: _230  and  _231
REMARK   90  A    between atoms: _236  and  _237
REMARK   91  A    between atoms: _239  and  _241
REMARK   92  A    between atoms: _241  and  _242
REMARK   93  A    between atoms: _241  and  _244
REMARK   94  A    between atoms: _244  and  _245
REMARK   95  A    between atoms: _250  and  _251
REMARK   96  A    between atoms: _254  and  _255
REMARK   97  A    between atoms: _260  and  _262
REMARK   98  A    between atoms: _262  and  _263
REMARK   99  A    between atoms: _262  and  _265
REMARK  100  A    between atoms: _265  and  _266
REMARK  101  A    between atoms: _270  and  ZN_304
REMARK  102  A    between atoms: _271  and  _273
REMARK  103  A    between atoms: _273  and  _274
REMARK  104  A    between atoms: _277  and  _279
REMARK  105  A    between atoms: _279  and  _280
REMARK  106  A    between atoms: _279  and  _282
REMARK  107  A    between atoms: _282  and  _283
REMARK  108  A    between atoms: _288  and  _289
REMARK  109  A    between atoms: _291  and  _293
REMARK  110  A    between atoms: _293  and  _294
REMARK  111  A    between atoms: _293  and  _296
REMARK  112  A    between atoms: _296  and  _297
REMARK  113  A    between atoms: _297  and  _298
REMARK                            x       y       z     vdW  Elec       q    Type
REMARK                         _______ _______ _______ _____ _____    ______ ____
ROOT
ATOM      1  O   HOH     1       8.186  29.811  41.019  0.00  0.00    +0.000 OA
ENDROOT
TORSDOF 0
REMARK  Name = ../refined-set-2016/2fu8/2fu8_pocket.pdb
REMARK  113 active torsions:
REMARK  status: ('A' for Active; 'I' for Inactive)
REMARK    1  A    between atoms: _1  and  _3
REMARK    2  A    between atoms: _3  and  _4
REMARK    3  A    between atoms: _3  and  _6
REMARK    4  A    between atoms: _6  and  _7
REMARK    5  A    between atoms: _12  and  _13
REMARK    6  A    between atoms: _15  and  _17
REMARK    7  A    between atoms: _17  and  _18
REMARK    8  A    between atoms: _17  and  _20
REMARK    9  A    between atoms: _20  and  _21
REMARK   10  A    between atoms: _24  and  _26
REMARK   11  A    between atoms: _26  and  _27
REMARK   12  A    between atoms: _26  and  _29
REMARK   13  A    between atoms: _32  and  _34
REMARK   14  A    between atoms: _34  and  _35
REMARK   15  A    between atoms: _34  and  _37
REMARK   16  A    between atoms: _37  and  _38
REMARK   17  A    between atoms: _41  and  _43
REMARK   18  A    between atoms: _43  and  _44
REMARK   19  A    between atoms: _43  and  _46
REMARK   20  A    between atoms: _46  and  _47
REMARK   21  A    between atoms: _57  and  _59
REMARK   22  A    between atoms: _59  and  _60
REMARK   23  A    between atoms: _59  and  _62
REMARK   24  A    between atoms: _62  and  _63
REMARK   25  A    between atoms: _66  and  _68
REMARK   26  A    between atoms: _68  and  _69
REMARK   27  A    between atoms: _68  and  _71
REMARK   28  A    between atoms: _71  and  _72
REMARK   29  A    between atoms: _75  and  _77
REMARK   30  A    between atoms: _77  and  _78
REMARK   31  A    between atoms: _77  and  _80
REMARK   32  A    between atoms: _80  and  _81
REMARK   33  A    between atoms: _81  and  _82
REMARK   34  A    between atoms: _84  and  _86
REMARK   35  A    between atoms: _86  and  _87
REMARK   36  A    between atoms: _86  and  _89
REMARK   37  A    between atoms: _89  and  _90
REMARK   38  A    between atoms: _94  and  ZN_303
REMARK   39  A    between atoms: _95  and  _97
REMARK   40  A    between atoms: _97  and  _98
REMARK   41  A    between atoms: _97  and  _100
REMARK   42  A    between atoms: _100  and  _101
REMARK   43  A    between atoms: _102  and  ZN_303
REMARK   44  A    between atoms: _106  and  _108
REMARK   45  A    between atoms: _108  and  _109
REMARK   46  A    between atoms: _112  and  _114
REMARK   47  A    between atoms: _123  and  _124
REMARK   48  A    between atoms: _132  and  _134
REMARK   49  A    between atoms: _134  and  _135
REMARK   50  A    between atoms: _134  and  _137
REMARK   51  A    between atoms: _137  and  _138
REMARK   52  A    between atoms: _144  and  _146
REMARK   53  A    between atoms: _146  and  _147
REMARK   54  A    between atoms: _146  and  _149
REMARK   55  A    between atoms: _149  and  _150
REMARK   56  A    between atoms: _153  and  _155
REMARK   57  A    between atoms: _155  and  _156
REMARK   58  A    between atoms: _155  and  _158
REMARK   59  A    between atoms: _158  and  _159
REMARK   60  A    between atoms: _163  and  ZN_303
REMARK   61  A    between atoms: _164  and  _166
REMARK   62  A    between atoms: _166  and  _167
REMARK   63  A    between atoms: _166  and  _169
REMARK   64  A    between atoms: _169  and  _170
REMARK   65  A    between atoms: _173  and  _175
REMARK   66  A    between atoms: _175  and  _176
REMARK   67  A    between atoms: _175  and  _178
REMARK   68  A    between atoms: _178  and  _179
REMARK   69  A    between atoms: _182  and  _184
REMARK   70  A    between atoms: _184  and  _185
REMARK   71  A    between atoms: _184  and  _187
REMARK   72  A    between atoms: _187  and  _188
REMARK   73  A    between atoms: _190  and  _192
REMARK   74  A    between atoms: _192  and  _193
REMARK   75  A    between atoms: _192  and  _195
REMARK   76  A    between atoms: _195  and  _196
REMARK   77  A    between atoms: _199  and  _201
REMARK   78  A    between atoms: _201  and  _202
REMARK   79  A    between atoms: _201  and  _204
REMARK   80  A    between atoms: _204  and  _205
REMARK   81  A    between atoms: _207  and  _209
REMARK   82  A    between atoms: _209  and  _210
REMARK   83  A    between atoms: _214  and  _215
REMARK   84  A    between atoms: _220  and  _222
REMARK   85  A    between atoms: _222  and  _223
REMARK   86  A    between atoms: _225  and  _227
REMARK   87  A    between atoms: _227  and  _228
REMARK   88  A    between atoms: _227  and  _230
REMARK   89  A    between atoms: _230  and  _231
REMARK   90  A    between atoms: _236  and  _237
REMARK   91  A    between atoms: _239  and  _241
REMARK   92  A    between atoms: _241  and  _242
REMARK   93  A    between atoms: _241  and  _244
REMARK   94  A    between atoms: _244  and  _245
REMARK   95  A    between atoms: _250  and  _251
REMARK   96  A    between atoms: _254  and  _255
REMARK   97  A    between atoms: _260  and  _262
REMARK   98  A    between atoms: _262  and  _263
REMARK   99  A    between atoms: _262  and  _265
REMARK  100  A    between atoms: _265  and  _266
REMARK  101  A    between atoms: _270  and  ZN_304
REMARK  102  A    between atoms: _271  and  _273
REMARK  103  A    between atoms: _273  and  _274
REMARK  104  A    between atoms: _277  and  _279
REMARK  105  A    between atoms: _279  and  _280
REMARK  106  A    between atoms: _279  and  _282
REMARK  107  A    between atoms: _282  and  _283
REMARK  108  A    between atoms: _288  and  _289
REMARK  109  A    between atoms: _291  and  _293
REMARK  110  A    between atoms: _293  and  _294
REMARK  111  A    between atoms: _293  and  _296
REMARK  112  A    between atoms: _296  and  _297
REMARK  113  A    between atoms: _297  and  _298
REMARK                            x       y       z     vdW  Elec       q    Type
REMARK                         _______ _______ _______ _____ _____    ______ ____
ROOT
ATOM      1  O   HOH     1       6.849  23.468  31.599  0.00  0.00    +0.000 OA
ENDROOT
TORSDOF 0
REMARK  Name = ../refined-set-2016/2fu8/2fu8_pocket.pdb
REMARK  113 active torsions:
REMARK  status: ('A' for Active; 'I' for Inactive)
REMARK    1  A    between atoms: _1  and  _3
REMARK    2  A    between atoms: _3  and  _4
REMARK    3  A    between atoms: _3  and  _6
REMARK    4  A    between atoms: _6  and  _7
REMARK    5  A    between atoms: _12  and  _13
REMARK    6  A    between atoms: _15  and  _17
REMARK    7  A    between atoms: _17  and  _18
REMARK    8  A    between atoms: _17  and  _20
REMARK    9  A    between atoms: _20  and  _21
REMARK   10  A    between atoms: _24  and  _26
REMARK   11  A    between atoms: _26  and  _27
REMARK   12  A    between atoms: _26  and  _29
REMARK   13  A    between atoms: _32  and  _34
REMARK   14  A    between atoms: _34  and  _35
REMARK   15  A    between atoms: _34  and  _37
REMARK   16  A    between atoms: _37  and  _38
REMARK   17  A    between atoms: _41  and  _43
REMARK   18  A    between atoms: _43  and  _44
REMARK   19  A    between atoms: _43  and  _46
REMARK   20  A    between atoms: _46  and  _47
REMARK   21  A    between atoms: _57  and  _59
REMARK   22  A    between atoms: _59  and  _60
REMARK   23  A    between atoms: _59  and  _62
REMARK   24  A    between atoms: _62  and  _63
REMARK   25  A    between atoms: _66  and  _68
REMARK   26  A    between atoms: _68  and  _69
REMARK   27  A    between atoms: _68  and  _71
REMARK   28  A    between atoms: _71  and  _72
REMARK   29  A    between atoms: _75  and  _77
REMARK   30  A    between atoms: _77  and  _78
REMARK   31  A    between atoms: _77  and  _80
REMARK   32  A    between atoms: _80  and  _81
REMARK   33  A    between atoms: _81  and  _82
REMARK   34  A    between atoms: _84  and  _86
REMARK   35  A    between atoms: _86  and  _87
REMARK   36  A    between atoms: _86  and  _89
REMARK   37  A    between atoms: _89  and  _90
REMARK   38  A    between atoms: _94  and  ZN_303
REMARK   39  A    between atoms: _95  and  _97
REMARK   40  A    between atoms: _97  and  _98
REMARK   41  A    between atoms: _97  and  _100
REMARK   42  A    between atoms: _100  and  _101
REMARK   43  A    between atoms: _102  and  ZN_303
REMARK   44  A    between atoms: _106  and  _108
REMARK   45  A    between atoms: _108  and  _109
REMARK   46  A    between atoms: _112  and  _114
REMARK   47  A    between atoms: _123  and  _124
REMARK   48  A    between atoms: _132  and  _134
REMARK   49  A    between atoms: _134  and  _135
REMARK   50  A    between atoms: _134  and  _137
REMARK   51  A    between atoms: _137  and  _138
REMARK   52  A    between atoms: _144  and  _146
REMARK   53  A    between atoms: _146  and  _147
REMARK   54  A    between atoms: _146  and  _149
REMARK   55  A    between atoms: _149  and  _150
REMARK   56  A    between atoms: _153  and  _155
REMARK   57  A    between atoms: _155  and  _156
REMARK   58  A    between atoms: _155  and  _158
REMARK   59  A    between atoms: _158  and  _159
REMARK   60  A    between atoms: _163  and  ZN_303
REMARK   61  A    between atoms: _164  and  _166
REMARK   62  A    between atoms: _166  and  _167
REMARK   63  A    between atoms: _166  and  _169
REMARK   64  A    between atoms: _169  and  _170
REMARK   65  A    between atoms: _173  and  _175
REMARK   66  A    between atoms: _175  and  _176
REMARK   67  A    between atoms: _175  and  _178
REMARK   68  A    between atoms: _178  and  _179
REMARK   69  A    between atoms: _182  and  _184
REMARK   70  A    between atoms: _184  and  _185
REMARK   71  A    between atoms: _184  and  _187
REMARK   72  A    between atoms: _187  and  _188
REMARK   73  A    between atoms: _190  and  _192
REMARK   74  A    between atoms: _192  and  _193
REMARK   75  A    between atoms: _192  and  _195
REMARK   76  A    between atoms: _195  and  _196
REMARK   77  A    between atoms: _199  and  _201
REMARK   78  A    between atoms: _201  and  _202
REMARK   79  A    between atoms: _201  and  _204
REMARK   80  A    between atoms: _204  and  _205
REMARK   81  A    between atoms: _207  and  _209
REMARK   82  A    between atoms: _209  and  _210
REMARK   83  A    between atoms: _214  and  _215
REMARK   84  A    between atoms: _220  and  _222
REMARK   85  A    between atoms: _222  and  _223
REMARK   86  A    between atoms: _225  and  _227
REMARK   87  A    between atoms: _227  and  _228
REMARK   88  A    between atoms: _227  and  _230
REMARK   89  A    between atoms: _230  and  _231
REMARK   90  A    between atoms: _236  and  _237
REMARK   91  A    between atoms: _239  and  _241
REMARK   92  A    between atoms: _241  and  _242
REMARK   93  A    between atoms: _241  and  _244
REMARK   94  A    between atoms: _244  and  _245
REMARK   95  A    between atoms: _250  and  _251
REMARK   96  A    between atoms: _254  and  _255
REMARK   97  A    between atoms: _260  and  _262
REMARK   98  A    between atoms: _262  and  _263
REMARK   99  A    between atoms: _262  and  _265
REMARK  100  A    between atoms: _265  and  _266
REMARK  101  A    between atoms: _270  and  ZN_304
REMARK  102  A    between atoms: _271  and  _273
REMARK  103  A    between atoms: _273  and  _274
REMARK  104  A    between atoms: _277  and  _279
REMARK  105  A    between atoms: _279  and  _280
REMARK  106  A    between atoms: _279  and  _282
REMARK  107  A    between atoms: _282  and  _283
REMARK  108  A    between atoms: _288  and  _289
REMARK  109  A    between atoms: _291  and  _293
REMARK  110  A    between atoms: _293  and  _294
REMARK  111  A    between atoms: _293  and  _296
REMARK  112  A    between atoms: _296  and  _297
REMARK  113  A    between atoms: _297  and  _298
REMARK                            x       y       z     vdW  Elec       q    Type
REMARK                         _______ _______ _______ _____ _____    ______ ____
ROOT
ATOM      1  O   HOH     1      14.389  25.428  32.086  0.00  0.00    +0.000 OA
ENDROOT
TORSDOF 0
REMARK  Name = ../refined-set-2016/2fu8/2fu8_pocket.pdb
REMARK  113 active torsions:
REMARK  status: ('A' for Active; 'I' for Inactive)
REMARK    1  A    between atoms: _1  and  _3
REMARK    2  A    between atoms: _3  and  _4
REMARK    3  A    between atoms: _3  and  _6
REMARK    4  A    between atoms: _6  and  _7
REMARK    5  A    between atoms: _12  and  _13
REMARK    6  A    between atoms: _15  and  _17
REMARK    7  A    between atoms: _17  and  _18
REMARK    8  A    between atoms: _17  and  _20
REMARK    9  A    between atoms: _20  and  _21
REMARK   10  A    between atoms: _24  and  _26
REMARK   11  A    between atoms: _26  and  _27
REMARK   12  A    between atoms: _26  and  _29
REMARK   13  A    between atoms: _32  and  _34
REMARK   14  A    between atoms: _34  and  _35
REMARK   15  A    between atoms: _34  and  _37
REMARK   16  A    between atoms: _37  and  _38
REMARK   17  A    between atoms: _41  and  _43
REMARK   18  A    between atoms: _43  and  _44
REMARK   19  A    between atoms: _43  and  _46
REMARK   20  A    between atoms: _46  and  _47
REMARK   21  A    between atoms: _57  and  _59
REMARK   22  A    between atoms: _59  and  _60
REMARK   23  A    between atoms: _59  and  _62
REMARK   24  A    between atoms: _62  and  _63
REMARK   25  A    between atoms: _66  and  _68
REMARK   26  A    between atoms: _68  and  _69
REMARK   27  A    between atoms: _68  and  _71
REMARK   28  A    between atoms: _71  and  _72
REMARK   29  A    between atoms: _75  and  _77
REMARK   30  A    between atoms: _77  and  _78
REMARK   31  A    between atoms: _77  and  _80
REMARK   32  A    between atoms: _80  and  _81
REMARK   33  A    between atoms: _81  and  _82
REMARK   34  A    between atoms: _84  and  _86
REMARK   35  A    between atoms: _86  and  _87
REMARK   36  A    between atoms: _86  and  _89
REMARK   37  A    between atoms: _89  and  _90
REMARK   38  A    between atoms: _94  and  ZN_303
REMARK   39  A    between atoms: _95  and  _97
REMARK   40  A    between atoms: _97  and  _98
REMARK   41  A    between atoms: _97  and  _100
REMARK   42  A    between atoms: _100  and  _101
REMARK   43  A    between atoms: _102  and  ZN_303
REMARK   44  A    between atoms: _106  and  _108
REMARK   45  A    between atoms: _108  and  _109
REMARK   46  A    between atoms: _112  and  _114
REMARK   47  A    between atoms: _123  and  _124
REMARK   48  A    between atoms: _132  and  _134
REMARK   49  A    between atoms: _134  and  _135
REMARK   50  A    between atoms: _134  and  _137
REMARK   51  A    between atoms: _137  and  _138
REMARK   52  A    between atoms: _144  and  _146
REMARK   53  A    between atoms: _146  and  _147
REMARK   54  A    between atoms: _146  and  _149
REMARK   55  A    between atoms: _149  and  _150
REMARK   56  A    between atoms: _153  and  _155
REMARK   57  A    between atoms: _155  and  _156
REMARK   58  A    between atoms: _155  and  _158
REMARK   59  A    between atoms: _158  and  _159
REMARK   60  A    between atoms: _163  and  ZN_303
REMARK   61  A    between atoms: _164  and  _166
REMARK   62  A    between atoms: _166  and  _167
REMARK   63  A    between atoms: _166  and  _169
REMARK   64  A    between atoms: _169  and  _170
REMARK   65  A    between atoms: _173  and  _175
REMARK   66  A    between atoms: _175  and  _176
REMARK   67  A    between atoms: _175  and  _178
REMARK   68  A    between atoms: _178  and  _179
REMARK   69  A    between atoms: _182  and  _184
REMARK   70  A    between atoms: _184  and  _185
REMARK   71  A    between atoms: _184  and  _187
REMARK   72  A    between atoms: _187  and  _188
REMARK   73  A    between atoms: _190  and  _192
REMARK   74  A    between atoms: _192  and  _193
REMARK   75  A    between atoms: _192  and  _195
REMARK   76  A    between atoms: _195  and  _196
REMARK   77  A    between atoms: _199  and  _201
REMARK   78  A    between atoms: _201  and  _202
REMARK   79  A    between atoms: _201  and  _204
REMARK   80  A    between atoms: _204  and  _205
REMARK   81  A    between atoms: _207  and  _209
REMARK   82  A    between atoms: _209  and  _210
REMARK   83  A    between atoms: _214  and  _215
REMARK   84  A    between atoms: _220  and  _222
REMARK   85  A    between atoms: _222  and  _223
REMARK   86  A    between atoms: _225  and  _227
REMARK   87  A    between atoms: _227  and  _228
REMARK   88  A    between atoms: _227  and  _230
REMARK   89  A    between atoms: _230  and  _231
REMARK   90  A    between atoms: _236  and  _237
REMARK   91  A    between atoms: _239  and  _241
REMARK   92  A    between atoms: _241  and  _242
REMARK   93  A    between atoms: _241  and  _244
REMARK   94  A    between atoms: _244  and  _245
REMARK   95  A    between atoms: _250  and  _251
REMARK   96  A    between atoms: _254  and  _255
REMARK   97  A    between atoms: _260  and  _262
REMARK   98  A    between atoms: _262  and  _263
REMARK   99  A    between atoms: _262  and  _265
REMARK  100  A    between atoms: _265  and  _266
REMARK  101  A    between atoms: _270  and  ZN_304
REMARK  102  A    between atoms: _271  and  _273
REMARK  103  A    between atoms: _273  and  _274
REMARK  104  A    between atoms: _277  and  _279
REMARK  105  A    between atoms: _279  and  _280
REMARK  106  A    between atoms: _279  and  _282
REMARK  107  A    between atoms: _282  and  _283
REMARK  108  A    between atoms: _288  and  _289
REMARK  109  A    between atoms: _291  and  _293
REMARK  110  A    between atoms: _293  and  _294
REMARK  111  A    between atoms: _293  and  _296
REMARK  112  A    between atoms: _296  and  _297
REMARK  113  A    between atoms: _297  and  _298
REMARK                            x       y       z     vdW  Elec       q    Type
REMARK                         _______ _______ _______ _____ _____    ______ ____
ROOT
ATOM      1  O   HOH     1       5.054  29.377  37.093  0.00  0.00    +0.000 OA
ENDROOT
TORSDOF 0
REMARK  Name = ../refined-set-2016/2fu8/2fu8_pocket.pdb
REMARK  113 active torsions:
REMARK  status: ('A' for Active; 'I' for Inactive)
REMARK    1  A    between atoms: _1  and  _3
REMARK    2  A    between atoms: _3  and  _4
REMARK    3  A    between atoms: _3  and  _6
REMARK    4  A    between atoms: _6  and  _7
REMARK    5  A    between atoms: _12  and  _13
REMARK    6  A    between atoms: _15  and  _17
REMARK    7  A    between atoms: _17  and  _18
REMARK    8  A    between atoms: _17  and  _20
REMARK    9  A    between atoms: _20  and  _21
REMARK   10  A    between atoms: _24  and  _26
REMARK   11  A    between atoms: _26  and  _27
REMARK   12  A    between atoms: _26  and  _29
REMARK   13  A    between atoms: _32  and  _34
REMARK   14  A    between atoms: _34  and  _35
REMARK   15  A    between atoms: _34  and  _37
REMARK   16  A    between atoms: _37  and  _38
REMARK   17  A    between atoms: _41  and  _43
REMARK   18  A    between atoms: _43  and  _44
REMARK   19  A    between atoms: _43  and  _46
REMARK   20  A    between atoms: _46  and  _47
REMARK   21  A    between atoms: _57  and  _59
REMARK   22  A    between atoms: _59  and  _60
REMARK   23  A    between atoms: _59  and  _62
REMARK   24  A    between atoms: _62  and  _63
REMARK   25  A    between atoms: _66  and  _68
REMARK   26  A    between atoms: _68  and  _69
REMARK   27  A    between atoms: _68  and  _71
REMARK   28  A    between atoms: _71  and  _72
REMARK   29  A    between atoms: _75  and  _77
REMARK   30  A    between atoms: _77  and  _78
REMARK   31  A    between atoms: _77  and  _80
REMARK   32  A    between atoms: _80  and  _81
REMARK   33  A    between atoms: _81  and  _82
REMARK   34  A    between atoms: _84  and  _86
REMARK   35  A    between atoms: _86  and  _87
REMARK   36  A    between atoms: _86  and  _89
REMARK   37  A    between atoms: _89  and  _90
REMARK   38  A    between atoms: _94  and  ZN_303
REMARK   39  A    between atoms: _95  and  _97
REMARK   40  A    between atoms: _97  and  _98
REMARK   41  A    between atoms: _97  and  _100
REMARK   42  A    between atoms: _100  and  _101
REMARK   43  A    between atoms: _102  and  ZN_303
REMARK   44  A    between atoms: _106  and  _108
REMARK   45  A    between atoms: _108  and  _109
REMARK   46  A    between atoms: _112  and  _114
REMARK   47  A    between atoms: _123  and  _124
REMARK   48  A    between atoms: _132  and  _134
REMARK   49  A    between atoms: _134  and  _135
REMARK   50  A    between atoms: _134  and  _137
REMARK   51  A    between atoms: _137  and  _138
REMARK   52  A    between atoms: _144  and  _146
REMARK   53  A    between atoms: _146  and  _147
REMARK   54  A    between atoms: _146  and  _149
REMARK   55  A    between atoms: _149  and  _150
REMARK   56  A    between atoms: _153  and  _155
REMARK   57  A    between atoms: _155  and  _156
REMARK   58  A    between atoms: _155  and  _158
REMARK   59  A    between atoms: _158  and  _159
REMARK   60  A    between atoms: _163  and  ZN_303
REMARK   61  A    between atoms: _164  and  _166
REMARK   62  A    between atoms: _166  and  _167
REMARK   63  A    between atoms: _166  and  _169
REMARK   64  A    between atoms: _169  and  _170
REMARK   65  A    between atoms: _173  and  _175
REMARK   66  A    between atoms: _175  and  _176
REMARK   67  A    between atoms: _175  and  _178
REMARK   68  A    between atoms: _178  and  _179
REMARK   69  A    between atoms: _182  and  _184
REMARK   70  A    between atoms: _184  and  _185
REMARK   71  A    between atoms: _184  and  _187
REMARK   72  A    between atoms: _187  and  _188
REMARK   73  A    between atoms: _190  and  _192
REMARK   74  A    between atoms: _192  and  _193
REMARK   75  A    between atoms: _192  and  _195
REMARK   76  A    between atoms: _195  and  _196
REMARK   77  A    between atoms: _199  and  _201
REMARK   78  A    between atoms: _201  and  _202
REMARK   79  A    between atoms: _201  and  _204
REMARK   80  A    between atoms: _204  and  _205
REMARK   81  A    between atoms: _207  and  _209
REMARK   82  A    between atoms: _209  and  _210
REMARK   83  A    between atoms: _214  and  _215
REMARK   84  A    between atoms: _220  and  _222
REMARK   85  A    between atoms: _222  and  _223
REMARK   86  A    between atoms: _225  and  _227
REMARK   87  A    between atoms: _227  and  _228
REMARK   88  A    between atoms: _227  and  _230
REMARK   89  A    between atoms: _230  and  _231
REMARK   90  A    between atoms: _236  and  _237
REMARK   91  A    between atoms: _239  and  _241
REMARK   92  A    between atoms: _241  and  _242
REMARK   93  A    between atoms: _241  and  _244
REMARK   94  A    between atoms: _244  and  _245
REMARK   95  A    between atoms: _250  and  _251
REMARK   96  A    between atoms: _254  and  _255
REMARK   97  A    between atoms: _260  and  _262
REMARK   98  A    between atoms: _262  and  _263
REMARK   99  A    between atoms: _262  and  _265
REMARK  100  A    between atoms: _265  and  _266
REMARK  101  A    between atoms: _270  and  ZN_304
REMARK  102  A    between atoms: _271  and  _273
REMARK  103  A    between atoms: _273  and  _274
REMARK  104  A    between atoms: _277  and  _279
REMARK  105  A    between atoms: _279  and  _280
REMARK  106  A    between atoms: _279  and  _282
REMARK  107  A    between atoms: _282  and  _283
REMARK  108  A    between atoms: _288  and  _289
REMARK  109  A    between atoms: _291  and  _293
REMARK  110  A    between atoms: _293  and  _294
REMARK  111  A    between atoms: _293  and  _296
REMARK  112  A    between atoms: _296  and  _297
REMARK  113  A    between atoms: _297  and  _298
REMARK                            x       y       z     vdW  Elec       q    Type
REMARK                         _______ _______ _______ _____ _____    ______ ____
ROOT
ATOM      1  O   HOH     1      12.190  25.377  37.022  0.00  0.00    +0.000 OA
ENDROOT
TORSDOF 0
