REMARK  Name = ../refined-set-2016/1h22/1h22_pocket.pdb
REMARK  277 active torsions:
REMARK  status: ('A' for Active; 'I' for Inactive)
REMARK    1  A    between atoms: _1  and  _3
REMARK    2  A    between atoms: _3  and  _4
REMARK    3  A    between atoms: _3  and  _6
REMARK    4  A    between atoms: _6  and  _7
REMARK    5  A    between atoms: _7  and  _8
REMARK    6  A    between atoms: _13  and  _15
REMARK    7  A    between atoms: _15  and  _16
REMARK    8  A    between atoms: _15  and  _18
REMARK    9  A    between atoms: _18  and  _19
REMARK   10  A    between atoms: _24  and  _25
REMARK   11  A    between atoms: _27  and  _29
REMARK   12  A    between atoms: _29  and  _30
REMARK   13  A    between atoms: _29  and  _32
REMARK   14  A    between atoms: _35  and  _37
REMARK   15  A    between atoms: _37  and  _38
REMARK   16  A    between atoms: _37  and  _40
REMARK   17  A    between atoms: _40  and  _41
REMARK   18  A    between atoms: _44  and  _46
REMARK   19  A    between atoms: _46  and  _47
REMARK   20  A    between atoms: _46  and  _49
REMARK   21  A    between atoms: _49  and  _50
REMARK   22  A    between atoms: _50  and  _51
REMARK   23  A    between atoms: _54  and  _56
REMARK   24  A    between atoms: _56  and  _57
REMARK   25  A    between atoms: _56  and  _59
REMARK   26  A    between atoms: _59  and  _60
REMARK   27  A    between atoms: _60  and  _61
REMARK   28  A    between atoms: _66  and  _68
REMARK   29  A    between atoms: _68  and  _69
REMARK   30  A    between atoms: _68  and  _71
REMARK   31  A    between atoms: _71  and  _72
REMARK   32  A    between atoms: _78  and  _80
REMARK   33  A    between atoms: _80  and  _81
REMARK   34  A    between atoms: _83  and  _85
REMARK   35  A    between atoms: _85  and  _86
REMARK   36  A    between atoms: _85  and  _88
REMARK   37  A    between atoms: _88  and  _89
REMARK   38  A    between atoms: _91  and  _93
REMARK   39  A    between atoms: _93  and  _94
REMARK   40  A    between atoms: _93  and  _96
REMARK   41  A    between atoms: _96  and  _97
REMARK   42  A    between atoms: _97  and  _98
REMARK   43  A    between atoms: _100  and  _102
REMARK   44  A    between atoms: _102  and  _103
REMARK   45  A    between atoms: _102  and  _105
REMARK   46  A    between atoms: _105  and  _106
REMARK   47  A    between atoms: _116  and  _118
REMARK   48  A    between atoms: _118  and  _119
REMARK   49  A    between atoms: _118  and  _121
REMARK   50  A    between atoms: _121  and  _122
REMARK   51  A    between atoms: _128  and  _129
REMARK   52  A    between atoms: _134  and  _136
REMARK   53  A    between atoms: _136  and  _137
REMARK   54  A    between atoms: _136  and  _139
REMARK   55  A    between atoms: _139  and  _140
REMARK   56  A    between atoms: _150  and  _152
REMARK   57  A    between atoms: _152  and  _153
REMARK   58  A    between atoms: _152  and  _155
REMARK   59  A    between atoms: _155  and  _156
REMARK   60  A    between atoms: _159  and  _161
REMARK   61  A    between atoms: _161  and  _162
REMARK   62  A    between atoms: _161  and  _164
REMARK   63  A    between atoms: _164  and  _165
REMARK   64  A    between atoms: _170  and  _171
REMARK   65  A    between atoms: _173  and  _175
REMARK   66  A    between atoms: _175  and  _176
REMARK   67  A    between atoms: _178  and  _180
REMARK   68  A    between atoms: _180  and  _181
REMARK   69  A    between atoms: _183  and  _185
REMARK   70  A    between atoms: _185  and  _186
REMARK   71  A    between atoms: _188  and  _190
REMARK   72  A    between atoms: _190  and  _191
REMARK   73  A    between atoms: _190  and  _193
REMARK   74  A    between atoms: _193  and  _194
REMARK   75  A    between atoms: _200  and  _202
REMARK   76  A    between atoms: _202  and  _203
REMARK   77  A    between atoms: _202  and  _205
REMARK   78  A    between atoms: _205  and  _206
REMARK   79  A    between atoms: _211  and  _212
REMARK   80  A    between atoms: _214  and  _216
REMARK   81  A    between atoms: _216  and  _217
REMARK   82  A    between atoms: _216  and  _219
REMARK   83  A    between atoms: _219  and  _220
REMARK   84  A    between atoms: _222  and  _224
REMARK   85  A    between atoms: _224  and  _225
REMARK   86  A    between atoms: _227  and  _229
REMARK   87  A    between atoms: _229  and  _230
REMARK   88  A    between atoms: _229  and  _232
REMARK   89  A    between atoms: _232  and  _233
REMARK   90  A    between atoms: _235  and  _237
REMARK   91  A    between atoms: _237  and  _238
REMARK   92  A    between atoms: _237  and  _240
REMARK   93  A    between atoms: _240  and  _241
REMARK   94  A    between atoms: _243  and  _245
REMARK   95  A    between atoms: _245  and  _246
REMARK   96  A    between atoms: _245  and  _248
REMARK   97  A    between atoms: _248  and  _249
REMARK   98  A    between atoms: _252  and  _254
REMARK   99  A    between atoms: _254  and  _255
REMARK  100  A    between atoms: _254  and  _257
REMARK  101  A    between atoms: _257  and  _258
REMARK  102  A    between atoms: _261  and  _263
REMARK  103  A    between atoms: _263  and  _264
REMARK  104  A    between atoms: _263  and  _266
REMARK  105  A    between atoms: _269  and  _271
REMARK  106  A    between atoms: _271  and  _272
REMARK  107  A    between atoms: _271  and  _274
REMARK  108  A    between atoms: _274  and  _275
REMARK  109  A    between atoms: _280  and  _281
REMARK  110  A    between atoms: _283  and  _285
REMARK  111  A    between atoms: _285  and  _286
REMARK  112  A    between atoms: _285  and  _288
REMARK  113  A    between atoms: _288  and  _289
REMARK  114  A    between atoms: _294  and  _295
REMARK  115  A    between atoms: _297  and  _299
REMARK  116  A    between atoms: _299  and  _300
REMARK  117  A    between atoms: _299  and  _302
REMARK  118  A    between atoms: _305  and  _307
REMARK  119  A    between atoms: _307  and  _308
REMARK  120  A    between atoms: _307  and  _310
REMARK  121  A    between atoms: _310  and  _311
REMARK  122  A    between atoms: _311  and  _312
REMARK  123  A    between atoms: _315  and  _317
REMARK  124  A    between atoms: _317  and  _318
REMARK  125  A    between atoms: _317  and  _320
REMARK  126  A    between atoms: _320  and  _321
REMARK  127  A    between atoms: _323  and  _325
REMARK  128  A    between atoms: _325  and  _326
REMARK  129  A    between atoms: _329  and  _331
REMARK  130  A    between atoms: _331  and  _332
REMARK  131  A    between atoms: _334  and  _336
REMARK  132  A    between atoms: _336  and  _337
REMARK  133  A    between atoms: _336  and  _339
REMARK  134  A    between atoms: _339  and  _340
REMARK  135  A    between atoms: _342  and  _344
REMARK  136  A    between atoms: _344  and  _345
REMARK  137  A    between atoms: _344  and  _347
REMARK  138  A    between atoms: _347  and  _348
REMARK  139  A    between atoms: _358  and  _360
REMARK  140  A    between atoms: _360  and  _361
REMARK  141  A    between atoms: _360  and  _363
REMARK  142  A    between atoms: _363  and  _364
REMARK  143  A    between atoms: _364  and  _365
REMARK  144  A    between atoms: _368  and  _370
REMARK  145  A    between atoms: _370  and  _371
REMARK  146  A    between atoms: _370  and  _373
REMARK  147  A    between atoms: _373  and  _374
REMARK  148  A    between atoms: _384  and  _386
REMARK  149  A    between atoms: _386  and  _387
REMARK  150  A    between atoms: _386  and  _389
REMARK  151  A    between atoms: _389  and  _390
REMARK  152  A    between atoms: _395  and  _397
REMARK  153  A    between atoms: _397  and  _398
REMARK  154  A    between atoms: _397  and  _400
REMARK  155  A    between atoms: _400  and  _401
REMARK  156  A    between atoms: _404  and  _406
REMARK  157  A    between atoms: _406  and  _407
REMARK  158  A    between atoms: _406  and  _409
REMARK  159  A    between atoms: _409  and  _410
REMARK  160  A    between atoms: _416  and  _418
REMARK  161  A    between atoms: _418  and  _419
REMARK  162  A    between atoms: _418  and  _421
REMARK  163  A    between atoms: _421  and  _422
REMARK  164  A    between atoms: _425  and  _427
REMARK  165  A    between atoms: _427  and  _428
REMARK  166  A    between atoms: _427  and  _430
REMARK  167  A    between atoms: _430  and  _431
REMARK  168  A    between atoms: _433  and  _435
REMARK  169  A    between atoms: _435  and  _436
REMARK  170  A    between atoms: _435  and  _438
REMARK  171  A    between atoms: _438  and  _439
REMARK  172  A    between atoms: _442  and  _444
REMARK  173  A    between atoms: _444  and  _445
REMARK  174  A    between atoms: _444  and  _447
REMARK  175  A    between atoms: _447  and  _448
REMARK  176  A    between atoms: _454  and  _456
REMARK  177  A    between atoms: _456  and  _457
REMARK  178  A    between atoms: _456  and  _459
REMARK  179  A    between atoms: _459  and  _460
REMARK  180  A    between atoms: _460  and  _461
REMARK  181  A    between atoms: _461  and  _462
REMARK  182  A    between atoms: _471  and  _473
REMARK  183  A    between atoms: _473  and  _474
REMARK  184  A    between atoms: _473  and  _476
REMARK  185  A    between atoms: _476  and  _477
REMARK  186  A    between atoms: _483  and  _485
REMARK  187  A    between atoms: _485  and  _486
REMARK  188  A    between atoms: _485  and  _488
REMARK  189  A    between atoms: _488  and  _489
REMARK  190  A    between atoms: _491  and  _493
REMARK  191  A    between atoms: _493  and  _494
REMARK  192  A    between atoms: _493  and  _496
REMARK  193  A    between atoms: _496  and  _497
REMARK  194  A    between atoms: _502  and  _504
REMARK  195  A    between atoms: _504  and  _505
REMARK  196  A    between atoms: _504  and  _507
REMARK  197  A    between atoms: _507  and  _508
REMARK  198  A    between atoms: _508  and  _509
REMARK  199  A    between atoms: _512  and  _514
REMARK  200  A    between atoms: _514  and  _515
REMARK  201  A    between atoms: _517  and  _519
REMARK  202  A    between atoms: _519  and  _520
REMARK  203  A    between atoms: _519  and  _522
REMARK  204  A    between atoms: _522  and  _523
REMARK  205  A    between atoms: _525  and  _527
REMARK  206  A    between atoms: _527  and  _528
REMARK  207  A    between atoms: _527  and  _530
REMARK  208  A    between atoms: _530  and  _531
REMARK  209  A    between atoms: _537  and  _539
REMARK  210  A    between atoms: _539  and  _540
REMARK  211  A    between atoms: _539  and  _542
REMARK  212  A    between atoms: _542  and  _543
REMARK  213  A    between atoms: _549  and  _551
REMARK  214  A    between atoms: _551  and  _552
REMARK  215  A    between atoms: _551  and  _554
REMARK  216  A    between atoms: _554  and  _555
REMARK  217  A    between atoms: _558  and  _560
REMARK  218  A    between atoms: _560  and  _561
REMARK  219  A    between atoms: _560  and  _563
REMARK  220  A    between atoms: _563  and  _564
REMARK  221  A    between atoms: _567  and  _569
REMARK  222  A    between atoms: _569  and  _570
REMARK  223  A    between atoms: _569  and  _572
REMARK  224  A    between atoms: _572  and  _573
REMARK  225  A    between atoms: _578  and  _579
REMARK  226  A    between atoms: _581  and  _583
REMARK  227  A    between atoms: _583  and  _584
REMARK  228  A    between atoms: _586  and  _588
REMARK  229  A    between atoms: _588  and  _589
REMARK  230  A    between atoms: _592  and  _594
REMARK  231  A    between atoms: _594  and  _595
REMARK  232  A    between atoms: _594  and  _597
REMARK  233  A    between atoms: _597  and  _598
REMARK  234  A    between atoms: _601  and  _603
REMARK  235  A    between atoms: _603  and  _604
REMARK  236  A    between atoms: _603  and  _606
REMARK  237  A    between atoms: _606  and  _607
REMARK  238  A    between atoms: _609  and  _611
REMARK  239  A    between atoms: _611  and  _612
REMARK  240  A    between atoms: _611  and  _614
REMARK  241  A    between atoms: _617  and  _619
REMARK  242  A    between atoms: _619  and  _620
REMARK  243  A    between atoms: _619  and  _622
REMARK  244  A    between atoms: _622  and  _623
REMARK  245  A    between atoms: _628  and  _630
REMARK  246  A    between atoms: _630  and  _631
REMARK  247  A    between atoms: _630  and  _633
REMARK  248  A    between atoms: _633  and  _634
REMARK  249  A    between atoms: _644  and  _646
REMARK  250  A    between atoms: _646  and  _647
REMARK  251  A    between atoms: _646  and  _649
REMARK  252  A    between atoms: _649  and  _650
REMARK  253  A    between atoms: _650  and  _651
REMARK  254  A    between atoms: _653  and  _655
REMARK  255  A    between atoms: _655  and  _656
REMARK  256  A    between atoms: _655  and  _658
REMARK  257  A    between atoms: _658  and  _659
REMARK  258  A    between atoms: _662  and  _664
REMARK  259  A    between atoms: _664  and  _665
REMARK  260  A    between atoms: _664  and  _667
REMARK  261  A    between atoms: _667  and  _668
REMARK  262  A    between atoms: _673  and  _675
REMARK  263  A    between atoms: _675  and  _676
REMARK  264  A    between atoms: _678  and  _680
REMARK  265  A    between atoms: _680  and  _681
REMARK  266  A    between atoms: _680  and  _683
REMARK  267  A    between atoms: _683  and  _684
REMARK  268  A    between atoms: _689  and  _690
REMARK  269  A    between atoms: _692  and  _694
REMARK  270  A    between atoms: _694  and  _695
REMARK  271  A    between atoms: _694  and  _697
REMARK  272  A    between atoms: _697  and  _698
REMARK  273  A    between atoms: _698  and  _699
REMARK  274  A    between atoms: _702  and  _704
REMARK  275  A    between atoms: _704  and  _705
REMARK  276  A    between atoms: _704  and  _707
REMARK  277  A    between atoms: _707  and  _708
REMARK                            x       y       z     vdW  Elec       q    Type
REMARK                         _______ _______ _______ _____ _____    ______ ____
ROOT
ATOM      1  CA  ASP A   4      -3.279  68.449  71.361  0.00  0.00    +0.160 C 
ENDROOT
BRANCH   1   4
ATOM      2  C   VAL A   3      -5.442  67.719  70.526  0.00  0.00    +0.241 C 
ATOM      3  O   VAL A   3      -5.721  67.213  71.627  0.00  0.00    -0.273 OA
ATOM      4  N   ASP A   4      -4.293  68.344  70.299  0.00  0.00    -0.297 N 
ATOM      5  H   ASP A   4      -4.108  68.762  69.365  0.00  0.00    +0.150 HD
BRANCH   2   6
ATOM      6  CA  VAL A   3      -6.420  67.645  69.359  0.00  0.00    +0.149 C 
BRANCH   6   8
ATOM      7  C   TYR A   2      -6.390  65.547  68.074  0.00  0.00    +0.241 C 
ATOM      8  N   VAL A   3      -6.727  66.232  69.177  0.00  0.00    -0.297 N 
ATOM      9  H   VAL A   3      -7.230  65.732  69.937  0.00  0.00    +0.150 HD
ATOM     10  O   TYR A   2      -5.776  66.056  67.085  0.00  0.00    -0.273 OA
BRANCH   7  11
ATOM     11  CA  TYR A   2      -6.817  64.060  68.038  0.00  0.00    +0.153 C 
BRANCH  11  14
ATOM     12  C   GLN A   1      -8.243  64.474  66.054  0.00  0.00    +0.238 C 
ATOM     13  O   GLN A   1      -8.994  65.274  66.654  0.00  0.00    -0.274 OA
ATOM     14  N   TYR A   2      -7.240  63.813  66.640  0.00  0.00    -0.297 N 
ATOM     15  H   TYR A   2      -6.733  63.092  66.089  0.00  0.00    +0.150 HD
BRANCH  12  16
ATOM     16  CA  GLN A   1      -8.429  64.181  64.553  0.00  0.00    +0.145 C 
BRANCH  16  17
ATOM     17  N   GLN A   1      -9.730  64.624  64.042  0.00  0.00    -0.238 NA
ATOM     18  H   GLN A   1     -10.253  65.364  64.552  0.00  0.00    +0.142 HD
ENDBRANCH  16  17
BRANCH  16  19
ATOM     19  CB  GLN A   1      -7.304  64.921  63.777  0.00  0.00    +0.036 C 
BRANCH  19  20
ATOM     20  CG  GLN A   1      -7.437  66.458  63.847  0.00  0.00    +0.087 C 
BRANCH  20  21
ATOM     21  CD  GLN A   1      -6.521  67.187  62.871  0.00  0.00    +0.219 C 
ATOM     22  OE1 GLN A   1      -5.353  67.505  63.182  0.00  0.00    -0.275 OA
ATOM     23  NE2 GLN A   1      -7.035  67.437  61.667  0.00  0.00    -0.329 N 
ATOM     24 HE21 GLN A   1      -8.012  67.155  61.450  0.00  0.00    +0.145 HD
ATOM     25 HE22 GLN A   1      -6.459  67.914  60.944  0.00  0.00    +0.145 HD
ENDBRANCH  20  21
ENDBRANCH  19  20
ENDBRANCH  16  19
ENDBRANCH  12  16
ENDBRANCH  11  14
BRANCH  11  26
ATOM     26  CB  TYR A   2      -5.611  63.213  68.359  0.00  0.00    +0.055 C 
BRANCH  26  27
ATOM     27  CG  TYR A   2      -4.997  63.456  69.715  0.00  0.00    -0.020 A 
ATOM     28  CD2 TYR A   2      -5.510  62.846  70.873  0.00  0.00    -0.001 A 
ATOM     29  CE2 TYR A   2      -4.903  63.056  72.113  0.00  0.00    +0.036 A 
ATOM     30  CZ  TYR A   2      -3.773  63.896  72.223  0.00  0.00    +0.134 A 
ATOM     31  CE1 TYR A   2      -3.262  64.499  71.112  0.00  0.00    +0.036 A 
ATOM     32  CD1 TYR A   2      -3.877  64.279  69.839  0.00  0.00    -0.001 A 
BRANCH  30  33
ATOM     33  OH  TYR A   2      -3.178  64.154  73.463  0.00  0.00    -0.506 OA
ATOM     34  HH  TYR A   2      -3.655  63.649  74.168  0.00  0.00    +0.292 HD
ENDBRANCH  30  33
ENDBRANCH  26  27
ENDBRANCH  11  26
ENDBRANCH   7  11
ENDBRANCH   6   8
BRANCH   6  35
ATOM     35  CB  VAL A   3      -7.719  68.444  69.678  0.00  0.00    +0.027 C 
ATOM     36  CG2 VAL A   3      -7.420  69.871  70.182  0.00  0.00    +0.002 C 
ATOM     37  CG1 VAL A   3      -8.566  68.546  68.362  0.00  0.00    +0.002 C 
ENDBRANCH   6  35
ENDBRANCH   2   6
ENDBRANCH   1   4
BRANCH   1  38
ATOM     38  C   ASP A   4      -3.736  69.468  72.432  0.00  0.00    +0.241 C 
ATOM     39  N   GLU A   5      -3.899  69.017  73.667  0.00  0.00    -0.297 N 
ATOM     40  H   GLU A   5      -3.736  68.008  73.860  0.00  0.00    +0.150 HD
ATOM     41  O   ASP A   4      -3.952  70.639  72.136  0.00  0.00    -0.273 OA
BRANCH  39  42
ATOM     42  CA  GLU A   5      -4.303  69.895  74.773  0.00  0.00    +0.149 C 
BRANCH  42  43
ATOM     43  C   GLU A   5      -3.190  69.905  75.851  0.00  0.00    +0.241 C 
ATOM     44  O   GLU A   5      -3.452  70.246  77.013  0.00  0.00    -0.273 OA
ATOM     45  N   GLN A   6      -1.982  69.489  75.513  0.00  0.00    -0.297 N 
ATOM     46  H   GLN A   6      -1.781  69.193  74.536  0.00  0.00    +0.150 HD
BRANCH  45  47
ATOM     47  CA  GLN A   6      -0.923  69.449  76.537  0.00  0.00    +0.149 C 
BRANCH  47  48
ATOM     48  C   GLN A   6      -0.513  70.816  77.122  0.00  0.00    +0.241 C 
ATOM     49  O   GLN A   6      -0.269  70.914  78.306  0.00  0.00    -0.273 OA
ATOM     50  N   PHE A   7      -0.472  71.846  76.281  0.00  0.00    -0.298 N 
ATOM     51  H   PHE A   7      -0.741  71.679  75.290  0.00  0.00    +0.150 HD
BRANCH  50  52
ATOM     52  CA  PHE A   7      -0.067  73.213  76.669  0.00  0.00    +0.141 C 
BRANCH  52  53
ATOM     53  C   PHE A   7      -1.107  74.196  76.126  0.00  0.00    +0.227 C 
ATOM     54  O   PHE A   7      -0.868  74.911  75.142  0.00  0.00    -0.286 OA
ENDBRANCH  52  53
BRANCH  52  55
ATOM     55  CB  PHE A   7       1.339  73.517  76.082  0.00  0.00    +0.054 C 
BRANCH  55  56
ATOM     56  CG  PHE A   7       2.381  72.453  76.430  0.00  0.00    -0.020 A 
ATOM     57  CD2 PHE A   7       2.838  72.302  77.782  0.00  0.00    -0.004 A 
ATOM     58  CE2 PHE A   7       3.782  71.319  78.116  0.00  0.00    -0.000 A 
ATOM     59  CZ  PHE A   7       4.306  70.449  77.080  0.00  0.00    -0.000 A 
ATOM     60  CE1 PHE A   7       3.841  70.610  75.727  0.00  0.00    -0.000 A 
ATOM     61  CD1 PHE A   7       2.891  71.599  75.433  0.00  0.00    -0.004 A 
ENDBRANCH  55  56
ENDBRANCH  52  55
ENDBRANCH  50  52
ENDBRANCH  47  48
BRANCH  47  62
ATOM     62  CB  GLN A   6       0.342  68.742  75.991  0.00  0.00    +0.039 C 
BRANCH  62  63
ATOM     63  CG  GLN A   6       0.492  67.293  76.447  0.00  0.00    +0.087 C 
BRANCH  63  64
ATOM     64  CD  GLN A   6       1.020  67.102  77.905  0.00  0.00    +0.219 C 
ATOM     65  NE2 GLN A   6       0.568  67.915  78.842  0.00  0.00    -0.329 N 
ATOM     66 HE21 GLN A   6       0.897  67.812  79.823  0.00  0.00    +0.145 HD
ATOM     67 HE22 GLN A   6      -0.117  68.659  78.599  0.00  0.00    +0.145 HD
ATOM     68  OE1 GLN A   6       1.832  66.207  78.148  0.00  0.00    -0.275 OA
ENDBRANCH  63  64
ENDBRANCH  62  63
ENDBRANCH  47  62
ENDBRANCH  45  47
ENDBRANCH  42  43
BRANCH  42  69
ATOM     69  CB  GLU A   5      -5.576  69.354  75.463  0.00  0.00    +0.041 C 
BRANCH  69  70
ATOM     70  CG  GLU A   5      -6.874  69.449  74.730  0.00  0.00    +0.116 C 
BRANCH  70  71
ATOM     71  CD  GLU A   5      -8.023  68.821  75.557  0.00  0.00    +0.365 C 
ATOM     72  OE2 GLU A   5      -8.224  69.185  76.741  0.00  0.00    -0.246 OA
ATOM     73  OE1 GLU A   5      -8.738  67.956  75.017  0.00  0.00    -0.246 OA
ENDBRANCH  70  71
ENDBRANCH  69  70
ENDBRANCH  42  69
ENDBRANCH  39  42
ENDBRANCH   1  38
BRANCH   1  74
ATOM     74  CB  ASP A   4      -1.948  68.893  70.718  0.00  0.00    +0.143 C 
BRANCH  74  75
ATOM     75  CG  ASP A   4      -0.838  69.127  71.733  0.00  0.00    +0.367 C 
ATOM     76  OD2 ASP A   4      -1.083  69.019  72.950  0.00  0.00    -0.246 OA
ATOM     77  OD1 ASP A   4       0.288  69.412  71.306  0.00  0.00    -0.246 OA
ENDBRANCH  74  75
ENDBRANCH   1  74
TORSDOF 31
REMARK  Name = ../refined-set-2016/1h22/1h22_pocket.pdb
REMARK  277 active torsions:
REMARK  status: ('A' for Active; 'I' for Inactive)
REMARK    1  A    between atoms: _1  and  _3
REMARK    2  A    between atoms: _3  and  _4
REMARK    3  A    between atoms: _3  and  _6
REMARK    4  A    between atoms: _6  and  _7
REMARK    5  A    between atoms: _7  and  _8
REMARK    6  A    between atoms: _13  and  _15
REMARK    7  A    between atoms: _15  and  _16
REMARK    8  A    between atoms: _15  and  _18
REMARK    9  A    between atoms: _18  and  _19
REMARK   10  A    between atoms: _24  and  _25
REMARK   11  A    between atoms: _27  and  _29
REMARK   12  A    between atoms: _29  and  _30
REMARK   13  A    between atoms: _29  and  _32
REMARK   14  A    between atoms: _35  and  _37
REMARK   15  A    between atoms: _37  and  _38
REMARK   16  A    between atoms: _37  and  _40
REMARK   17  A    between atoms: _40  and  _41
REMARK   18  A    between atoms: _44  and  _46
REMARK   19  A    between atoms: _46  and  _47
REMARK   20  A    between atoms: _46  and  _49
REMARK   21  A    between atoms: _49  and  _50
REMARK   22  A    between atoms: _50  and  _51
REMARK   23  A    between atoms: _54  and  _56
REMARK   24  A    between atoms: _56  and  _57
REMARK   25  A    between atoms: _56  and  _59
REMARK   26  A    between atoms: _59  and  _60
REMARK   27  A    between atoms: _60  and  _61
REMARK   28  A    between atoms: _66  and  _68
REMARK   29  A    between atoms: _68  and  _69
REMARK   30  A    between atoms: _68  and  _71
REMARK   31  A    between atoms: _71  and  _72
REMARK   32  A    between atoms: _78  and  _80
REMARK   33  A    between atoms: _80  and  _81
REMARK   34  A    between atoms: _83  and  _85
REMARK   35  A    between atoms: _85  and  _86
REMARK   36  A    between atoms: _85  and  _88
REMARK   37  A    between atoms: _88  and  _89
REMARK   38  A    between atoms: _91  and  _93
REMARK   39  A    between atoms: _93  and  _94
REMARK   40  A    between atoms: _93  and  _96
REMARK   41  A    between atoms: _96  and  _97
REMARK   42  A    between atoms: _97  and  _98
REMARK   43  A    between atoms: _100  and  _102
REMARK   44  A    between atoms: _102  and  _103
REMARK   45  A    between atoms: _102  and  _105
REMARK   46  A    between atoms: _105  and  _106
REMARK   47  A    between atoms: _116  and  _118
REMARK   48  A    between atoms: _118  and  _119
REMARK   49  A    between atoms: _118  and  _121
REMARK   50  A    between atoms: _121  and  _122
REMARK   51  A    between atoms: _128  and  _129
REMARK   52  A    between atoms: _134  and  _136
REMARK   53  A    between atoms: _136  and  _137
REMARK   54  A    between atoms: _136  and  _139
REMARK   55  A    between atoms: _139  and  _140
REMARK   56  A    between atoms: _150  and  _152
REMARK   57  A    between atoms: _152  and  _153
REMARK   58  A    between atoms: _152  and  _155
REMARK   59  A    between atoms: _155  and  _156
REMARK   60  A    between atoms: _159  and  _161
REMARK   61  A    between atoms: _161  and  _162
REMARK   62  A    between atoms: _161  and  _164
REMARK   63  A    between atoms: _164  and  _165
REMARK   64  A    between atoms: _170  and  _171
REMARK   65  A    between atoms: _173  and  _175
REMARK   66  A    between atoms: _175  and  _176
REMARK   67  A    between atoms: _178  and  _180
REMARK   68  A    between atoms: _180  and  _181
REMARK   69  A    between atoms: _183  and  _185
REMARK   70  A    between atoms: _185  and  _186
REMARK   71  A    between atoms: _188  and  _190
REMARK   72  A    between atoms: _190  and  _191
REMARK   73  A    between atoms: _190  and  _193
REMARK   74  A    between atoms: _193  and  _194
REMARK   75  A    between atoms: _200  and  _202
REMARK   76  A    between atoms: _202  and  _203
REMARK   77  A    between atoms: _202  and  _205
REMARK   78  A    between atoms: _205  and  _206
REMARK   79  A    between atoms: _211  and  _212
REMARK   80  A    between atoms: _214  and  _216
REMARK   81  A    between atoms: _216  and  _217
REMARK   82  A    between atoms: _216  and  _219
REMARK   83  A    between atoms: _219  and  _220
REMARK   84  A    between atoms: _222  and  _224
REMARK   85  A    between atoms: _224  and  _225
REMARK   86  A    between atoms: _227  and  _229
REMARK   87  A    between atoms: _229  and  _230
REMARK   88  A    between atoms: _229  and  _232
REMARK   89  A    between atoms: _232  and  _233
REMARK   90  A    between atoms: _235  and  _237
REMARK   91  A    between atoms: _237  and  _238
REMARK   92  A    between atoms: _237  and  _240
REMARK   93  A    between atoms: _240  and  _241
REMARK   94  A    between atoms: _243  and  _245
REMARK   95  A    between atoms: _245  and  _246
REMARK   96  A    between atoms: _245  and  _248
REMARK   97  A    between atoms: _248  and  _249
REMARK   98  A    between atoms: _252  and  _254
REMARK   99  A    between atoms: _254  and  _255
REMARK  100  A    between atoms: _254  and  _257
REMARK  101  A    between atoms: _257  and  _258
REMARK  102  A    between atoms: _261  and  _263
REMARK  103  A    between atoms: _263  and  _264
REMARK  104  A    between atoms: _263  and  _266
REMARK  105  A    between atoms: _269  and  _271
REMARK  106  A    between atoms: _271  and  _272
REMARK  107  A    between atoms: _271  and  _274
REMARK  108  A    between atoms: _274  and  _275
REMARK  109  A    between atoms: _280  and  _281
REMARK  110  A    between atoms: _283  and  _285
REMARK  111  A    between atoms: _285  and  _286
REMARK  112  A    between atoms: _285  and  _288
REMARK  113  A    between atoms: _288  and  _289
REMARK  114  A    between atoms: _294  and  _295
REMARK  115  A    between atoms: _297  and  _299
REMARK  116  A    between atoms: _299  and  _300
REMARK  117  A    between atoms: _299  and  _302
REMARK  118  A    between atoms: _305  and  _307
REMARK  119  A    between atoms: _307  and  _308
REMARK  120  A    between atoms: _307  and  _310
REMARK  121  A    between atoms: _310  and  _311
REMARK  122  A    between atoms: _311  and  _312
REMARK  123  A    between atoms: _315  and  _317
REMARK  124  A    between atoms: _317  and  _318
REMARK  125  A    between atoms: _317  and  _320
REMARK  126  A    between atoms: _320  and  _321
REMARK  127  A    between atoms: _323  and  _325
REMARK  128  A    between atoms: _325  and  _326
REMARK  129  A    between atoms: _329  and  _331
REMARK  130  A    between atoms: _331  and  _332
REMARK  131  A    between atoms: _334  and  _336
REMARK  132  A    between atoms: _336  and  _337
REMARK  133  A    between atoms: _336  and  _339
REMARK  134  A    between atoms: _339  and  _340
REMARK  135  A    between atoms: _342  and  _344
REMARK  136  A    between atoms: _344  and  _345
REMARK  137  A    between atoms: _344  and  _347
REMARK  138  A    between atoms: _347  and  _348
REMARK  139  A    between atoms: _358  and  _360
REMARK  140  A    between atoms: _360  and  _361
REMARK  141  A    between atoms: _360  and  _363
REMARK  142  A    between atoms: _363  and  _364
REMARK  143  A    between atoms: _364  and  _365
REMARK  144  A    between atoms: _368  and  _370
REMARK  145  A    between atoms: _370  and  _371
REMARK  146  A    between atoms: _370  and  _373
REMARK  147  A    between atoms: _373  and  _374
REMARK  148  A    between atoms: _384  and  _386
REMARK  149  A    between atoms: _386  and  _387
REMARK  150  A    between atoms: _386  and  _389
REMARK  151  A    between atoms: _389  and  _390
REMARK  152  A    between atoms: _395  and  _397
REMARK  153  A    between atoms: _397  and  _398
REMARK  154  A    between atoms: _397  and  _400
REMARK  155  A    between atoms: _400  and  _401
REMARK  156  A    between atoms: _404  and  _406
REMARK  157  A    between atoms: _406  and  _407
REMARK  158  A    between atoms: _406  and  _409
REMARK  159  A    between atoms: _409  and  _410
REMARK  160  A    between atoms: _416  and  _418
REMARK  161  A    between atoms: _418  and  _419
REMARK  162  A    between atoms: _418  and  _421
REMARK  163  A    between atoms: _421  and  _422
REMARK  164  A    between atoms: _425  and  _427
REMARK  165  A    between atoms: _427  and  _428
REMARK  166  A    between atoms: _427  and  _430
REMARK  167  A    between atoms: _430  and  _431
REMARK  168  A    between atoms: _433  and  _435
REMARK  169  A    between atoms: _435  and  _436
REMARK  170  A    between atoms: _435  and  _438
REMARK  171  A    between atoms: _438  and  _439
REMARK  172  A    between atoms: _442  and  _444
REMARK  173  A    between atoms: _444  and  _445
REMARK  174  A    between atoms: _444  and  _447
REMARK  175  A    between atoms: _447  and  _448
REMARK  176  A    between atoms: _454  and  _456
REMARK  177  A    between atoms: _456  and  _457
REMARK  178  A    between atoms: _456  and  _459
REMARK  179  A    between atoms: _459  and  _460
REMARK  180  A    between atoms: _460  and  _461
REMARK  181  A    between atoms: _461  and  _462
REMARK  182  A    between atoms: _471  and  _473
REMARK  183  A    between atoms: _473  and  _474
REMARK  184  A    between atoms: _473  and  _476
REMARK  185  A    between atoms: _476  and  _477
REMARK  186  A    between atoms: _483  and  _485
REMARK  187  A    between atoms: _485  and  _486
REMARK  188  A    between atoms: _485  and  _488
REMARK  189  A    between atoms: _488  and  _489
REMARK  190  A    between atoms: _491  and  _493
REMARK  191  A    between atoms: _493  and  _494
REMARK  192  A    between atoms: _493  and  _496
REMARK  193  A    between atoms: _496  and  _497
REMARK  194  A    between atoms: _502  and  _504
REMARK  195  A    between atoms: _504  and  _505
REMARK  196  A    between atoms: _504  and  _507
REMARK  197  A    between atoms: _507  and  _508
REMARK  198  A    between atoms: _508  and  _509
REMARK  199  A    between atoms: _512  and  _514
REMARK  200  A    between atoms: _514  and  _515
REMARK  201  A    between atoms: _517  and  _519
REMARK  202  A    between atoms: _519  and  _520
REMARK  203  A    between atoms: _519  and  _522
REMARK  204  A    between atoms: _522  and  _523
REMARK  205  A    between atoms: _525  and  _527
REMARK  206  A    between atoms: _527  and  _528
REMARK  207  A    between atoms: _527  and  _530
REMARK  208  A    between atoms: _530  and  _531
REMARK  209  A    between atoms: _537  and  _539
REMARK  210  A    between atoms: _539  and  _540
REMARK  211  A    between atoms: _539  and  _542
REMARK  212  A    between atoms: _542  and  _543
REMARK  213  A    between atoms: _549  and  _551
REMARK  214  A    between atoms: _551  and  _552
REMARK  215  A    between atoms: _551  and  _554
REMARK  216  A    between atoms: _554  and  _555
REMARK  217  A    between atoms: _558  and  _560
REMARK  218  A    between atoms: _560  and  _561
REMARK  219  A    between atoms: _560  and  _563
REMARK  220  A    between atoms: _563  and  _564
REMARK  221  A    between atoms: _567  and  _569
REMARK  222  A    between atoms: _569  and  _570
REMARK  223  A    between atoms: _569  and  _572
REMARK  224  A    between atoms: _572  and  _573
REMARK  225  A    between atoms: _578  and  _579
REMARK  226  A    between atoms: _581  and  _583
REMARK  227  A    between atoms: _583  and  _584
REMARK  228  A    between atoms: _586  and  _588
REMARK  229  A    between atoms: _588  and  _589
REMARK  230  A    between atoms: _592  and  _594
REMARK  231  A    between atoms: _594  and  _595
REMARK  232  A    between atoms: _594  and  _597
REMARK  233  A    between atoms: _597  and  _598
REMARK  234  A    between atoms: _601  and  _603
REMARK  235  A    between atoms: _603  and  _604
REMARK  236  A    between atoms: _603  and  _606
REMARK  237  A    between atoms: _606  and  _607
REMARK  238  A    between atoms: _609  and  _611
REMARK  239  A    between atoms: _611  and  _612
REMARK  240  A    between atoms: _611  and  _614
REMARK  241  A    between atoms: _617  and  _619
REMARK  242  A    between atoms: _619  and  _620
REMARK  243  A    between atoms: _619  and  _622
REMARK  244  A    between atoms: _622  and  _623
REMARK  245  A    between atoms: _628  and  _630
REMARK  246  A    between atoms: _630  and  _631
REMARK  247  A    between atoms: _630  and  _633
REMARK  248  A    between atoms: _633  and  _634
REMARK  249  A    between atoms: _644  and  _646
REMARK  250  A    between atoms: _646  and  _647
REMARK  251  A    between atoms: _646  and  _649
REMARK  252  A    between atoms: _649  and  _650
REMARK  253  A    between atoms: _650  and  _651
REMARK  254  A    between atoms: _653  and  _655
REMARK  255  A    between atoms: _655  and  _656
REMARK  256  A    between atoms: _655  and  _658
REMARK  257  A    between atoms: _658  and  _659
REMARK  258  A    between atoms: _662  and  _664
REMARK  259  A    between atoms: _664  and  _665
REMARK  260  A    between atoms: _664  and  _667
REMARK  261  A    between atoms: _667  and  _668
REMARK  262  A    between atoms: _673  and  _675
REMARK  263  A    between atoms: _675  and  _676
REMARK  264  A    between atoms: _678  and  _680
REMARK  265  A    between atoms: _680  and  _681
REMARK  266  A    between atoms: _680  and  _683
REMARK  267  A    between atoms: _683  and  _684
REMARK  268  A    between atoms: _689  and  _690
REMARK  269  A    between atoms: _692  and  _694
REMARK  270  A    between atoms: _694  and  _695
REMARK  271  A    between atoms: _694  and  _697
REMARK  272  A    between atoms: _697  and  _698
REMARK  273  A    between atoms: _698  and  _699
REMARK  274  A    between atoms: _702  and  _704
REMARK  275  A    between atoms: _704  and  _705
REMARK  276  A    between atoms: _704  and  _707
REMARK  277  A    between atoms: _707  and  _708
REMARK                            x       y       z     vdW  Elec       q    Type
REMARK                         _______ _______ _______ _____ _____    ______ ____
ROOT
ATOM      1  C   GLY A   1       3.578  74.723  69.613  0.00  0.00    +0.240 C 
ATOM      2  N   SER A   2       2.596  74.391  70.444  0.00  0.00    -0.296 N 
ATOM      3  H   SER A   2       2.414  74.989  71.275  0.00  0.00    +0.150 HD
ATOM      4  O   GLY A   1       3.883  74.039  68.613  0.00  0.00    -0.274 OA
ENDROOT
BRANCH   1   5
ATOM      5  CA  GLY A   1       4.353  75.991  69.988  0.00  0.00    +0.169 C 
BRANCH   5   6
ATOM      6  N   GLY A   1       3.509  77.056  70.544  0.00  0.00    -0.236 NA
ATOM      7  H   GLY A   1       3.701  77.425  71.497  0.00  0.00    +0.142 HD
ENDBRANCH   5   6
ENDBRANCH   1   5
BRANCH   2   8
ATOM      8  CA  SER A   2       1.766  73.213  70.224  0.00  0.00    +0.166 C 
BRANCH   8   9
ATOM      9  C   SER A   2       0.487  73.521  69.444  0.00  0.00    +0.229 C 
ATOM     10  O   SER A   2       0.077  72.736  68.581  0.00  0.00    -0.286 OA
ENDBRANCH   8   9
BRANCH   8  11
ATOM     11  CB  SER A   2       1.374  72.574  71.568  0.00  0.00    +0.165 C 
BRANCH  11  12
ATOM     12  OG  SER A   2       0.879  73.536  72.475  0.00  0.00    -0.380 OA
ATOM     13  H   SER A   2       0.637  73.092  73.326  0.00  0.00    +0.211 HD
ENDBRANCH  11  12
ENDBRANCH   8  11
ENDBRANCH   2   8
TORSDOF 6
REMARK  Name = ../refined-set-2016/1h22/1h22_pocket.pdb
REMARK  277 active torsions:
REMARK  status: ('A' for Active; 'I' for Inactive)
REMARK    1  A    between atoms: _1  and  _3
REMARK    2  A    between atoms: _3  and  _4
REMARK    3  A    between atoms: _3  and  _6
REMARK    4  A    between atoms: _6  and  _7
REMARK    5  A    between atoms: _7  and  _8
REMARK    6  A    between atoms: _13  and  _15
REMARK    7  A    between atoms: _15  and  _16
REMARK    8  A    between atoms: _15  and  _18
REMARK    9  A    between atoms: _18  and  _19
REMARK   10  A    between atoms: _24  and  _25
REMARK   11  A    between atoms: _27  and  _29
REMARK   12  A    between atoms: _29  and  _30
REMARK   13  A    between atoms: _29  and  _32
REMARK   14  A    between atoms: _35  and  _37
REMARK   15  A    between atoms: _37  and  _38
REMARK   16  A    between atoms: _37  and  _40
REMARK   17  A    between atoms: _40  and  _41
REMARK   18  A    between atoms: _44  and  _46
REMARK   19  A    between atoms: _46  and  _47
REMARK   20  A    between atoms: _46  and  _49
REMARK   21  A    between atoms: _49  and  _50
REMARK   22  A    between atoms: _50  and  _51
REMARK   23  A    between atoms: _54  and  _56
REMARK   24  A    between atoms: _56  and  _57
REMARK   25  A    between atoms: _56  and  _59
REMARK   26  A    between atoms: _59  and  _60
REMARK   27  A    between atoms: _60  and  _61
REMARK   28  A    between atoms: _66  and  _68
REMARK   29  A    between atoms: _68  and  _69
REMARK   30  A    between atoms: _68  and  _71
REMARK   31  A    between atoms: _71  and  _72
REMARK   32  A    between atoms: _78  and  _80
REMARK   33  A    between atoms: _80  and  _81
REMARK   34  A    between atoms: _83  and  _85
REMARK   35  A    between atoms: _85  and  _86
REMARK   36  A    between atoms: _85  and  _88
REMARK   37  A    between atoms: _88  and  _89
REMARK   38  A    between atoms: _91  and  _93
REMARK   39  A    between atoms: _93  and  _94
REMARK   40  A    between atoms: _93  and  _96
REMARK   41  A    between atoms: _96  and  _97
REMARK   42  A    between atoms: _97  and  _98
REMARK   43  A    between atoms: _100  and  _102
REMARK   44  A    between atoms: _102  and  _103
REMARK   45  A    between atoms: _102  and  _105
REMARK   46  A    between atoms: _105  and  _106
REMARK   47  A    between atoms: _116  and  _118
REMARK   48  A    between atoms: _118  and  _119
REMARK   49  A    between atoms: _118  and  _121
REMARK   50  A    between atoms: _121  and  _122
REMARK   51  A    between atoms: _128  and  _129
REMARK   52  A    between atoms: _134  and  _136
REMARK   53  A    between atoms: _136  and  _137
REMARK   54  A    between atoms: _136  and  _139
REMARK   55  A    between atoms: _139  and  _140
REMARK   56  A    between atoms: _150  and  _152
REMARK   57  A    between atoms: _152  and  _153
REMARK   58  A    between atoms: _152  and  _155
REMARK   59  A    between atoms: _155  and  _156
REMARK   60  A    between atoms: _159  and  _161
REMARK   61  A    between atoms: _161  and  _162
REMARK   62  A    between atoms: _161  and  _164
REMARK   63  A    between atoms: _164  and  _165
REMARK   64  A    between atoms: _170  and  _171
REMARK   65  A    between atoms: _173  and  _175
REMARK   66  A    between atoms: _175  and  _176
REMARK   67  A    between atoms: _178  and  _180
REMARK   68  A    between atoms: _180  and  _181
REMARK   69  A    between atoms: _183  and  _185
REMARK   70  A    between atoms: _185  and  _186
REMARK   71  A    between atoms: _188  and  _190
REMARK   72  A    between atoms: _190  and  _191
REMARK   73  A    between atoms: _190  and  _193
REMARK   74  A    between atoms: _193  and  _194
REMARK   75  A    between atoms: _200  and  _202
REMARK   76  A    between atoms: _202  and  _203
REMARK   77  A    between atoms: _202  and  _205
REMARK   78  A    between atoms: _205  and  _206
REMARK   79  A    between atoms: _211  and  _212
REMARK   80  A    between atoms: _214  and  _216
REMARK   81  A    between atoms: _216  and  _217
REMARK   82  A    between atoms: _216  and  _219
REMARK   83  A    between atoms: _219  and  _220
REMARK   84  A    between atoms: _222  and  _224
REMARK   85  A    between atoms: _224  and  _225
REMARK   86  A    between atoms: _227  and  _229
REMARK   87  A    between atoms: _229  and  _230
REMARK   88  A    between atoms: _229  and  _232
REMARK   89  A    between atoms: _232  and  _233
REMARK   90  A    between atoms: _235  and  _237
REMARK   91  A    between atoms: _237  and  _238
REMARK   92  A    between atoms: _237  and  _240
REMARK   93  A    between atoms: _240  and  _241
REMARK   94  A    between atoms: _243  and  _245
REMARK   95  A    between atoms: _245  and  _246
REMARK   96  A    between atoms: _245  and  _248
REMARK   97  A    between atoms: _248  and  _249
REMARK   98  A    between atoms: _252  and  _254
REMARK   99  A    between atoms: _254  and  _255
REMARK  100  A    between atoms: _254  and  _257
REMARK  101  A    between atoms: _257  and  _258
REMARK  102  A    between atoms: _261  and  _263
REMARK  103  A    between atoms: _263  and  _264
REMARK  104  A    between atoms: _263  and  _266
REMARK  105  A    between atoms: _269  and  _271
REMARK  106  A    between atoms: _271  and  _272
REMARK  107  A    between atoms: _271  and  _274
REMARK  108  A    between atoms: _274  and  _275
REMARK  109  A    between atoms: _280  and  _281
REMARK  110  A    between atoms: _283  and  _285
REMARK  111  A    between atoms: _285  and  _286
REMARK  112  A    between atoms: _285  and  _288
REMARK  113  A    between atoms: _288  and  _289
REMARK  114  A    between atoms: _294  and  _295
REMARK  115  A    between atoms: _297  and  _299
REMARK  116  A    between atoms: _299  and  _300
REMARK  117  A    between atoms: _299  and  _302
REMARK  118  A    between atoms: _305  and  _307
REMARK  119  A    between atoms: _307  and  _308
REMARK  120  A    between atoms: _307  and  _310
REMARK  121  A    between atoms: _310  and  _311
REMARK  122  A    between atoms: _311  and  _312
REMARK  123  A    between atoms: _315  and  _317
REMARK  124  A    between atoms: _317  and  _318
REMARK  125  A    between atoms: _317  and  _320
REMARK  126  A    between atoms: _320  and  _321
REMARK  127  A    between atoms: _323  and  _325
REMARK  128  A    between atoms: _325  and  _326
REMARK  129  A    between atoms: _329  and  _331
REMARK  130  A    between atoms: _331  and  _332
REMARK  131  A    between atoms: _334  and  _336
REMARK  132  A    between atoms: _336  and  _337
REMARK  133  A    between atoms: _336  and  _339
REMARK  134  A    between atoms: _339  and  _340
REMARK  135  A    between atoms: _342  and  _344
REMARK  136  A    between atoms: _344  and  _345
REMARK  137  A    between atoms: _344  and  _347
REMARK  138  A    between atoms: _347  and  _348
REMARK  139  A    between atoms: _358  and  _360
REMARK  140  A    between atoms: _360  and  _361
REMARK  141  A    between atoms: _360  and  _363
REMARK  142  A    between atoms: _363  and  _364
REMARK  143  A    between atoms: _364  and  _365
REMARK  144  A    between atoms: _368  and  _370
REMARK  145  A    between atoms: _370  and  _371
REMARK  146  A    between atoms: _370  and  _373
REMARK  147  A    between atoms: _373  and  _374
REMARK  148  A    between atoms: _384  and  _386
REMARK  149  A    between atoms: _386  and  _387
REMARK  150  A    between atoms: _386  and  _389
REMARK  151  A    between atoms: _389  and  _390
REMARK  152  A    between atoms: _395  and  _397
REMARK  153  A    between atoms: _397  and  _398
REMARK  154  A    between atoms: _397  and  _400
REMARK  155  A    between atoms: _400  and  _401
REMARK  156  A    between atoms: _404  and  _406
REMARK  157  A    between atoms: _406  and  _407
REMARK  158  A    between atoms: _406  and  _409
REMARK  159  A    between atoms: _409  and  _410
REMARK  160  A    between atoms: _416  and  _418
REMARK  161  A    between atoms: _418  and  _419
REMARK  162  A    between atoms: _418  and  _421
REMARK  163  A    between atoms: _421  and  _422
REMARK  164  A    between atoms: _425  and  _427
REMARK  165  A    between atoms: _427  and  _428
REMARK  166  A    between atoms: _427  and  _430
REMARK  167  A    between atoms: _430  and  _431
REMARK  168  A    between atoms: _433  and  _435
REMARK  169  A    between atoms: _435  and  _436
REMARK  170  A    between atoms: _435  and  _438
REMARK  171  A    between atoms: _438  and  _439
REMARK  172  A    between atoms: _442  and  _444
REMARK  173  A    between atoms: _444  and  _445
REMARK  174  A    between atoms: _444  and  _447
REMARK  175  A    between atoms: _447  and  _448
REMARK  176  A    between atoms: _454  and  _456
REMARK  177  A    between atoms: _456  and  _457
REMARK  178  A    between atoms: _456  and  _459
REMARK  179  A    between atoms: _459  and  _460
REMARK  180  A    between atoms: _460  and  _461
REMARK  181  A    between atoms: _461  and  _462
REMARK  182  A    between atoms: _471  and  _473
REMARK  183  A    between atoms: _473  and  _474
REMARK  184  A    between atoms: _473  and  _476
REMARK  185  A    between atoms: _476  and  _477
REMARK  186  A    between atoms: _483  and  _485
REMARK  187  A    between atoms: _485  and  _486
REMARK  188  A    between atoms: _485  and  _488
REMARK  189  A    between atoms: _488  and  _489
REMARK  190  A    between atoms: _491  and  _493
REMARK  191  A    between atoms: _493  and  _494
REMARK  192  A    between atoms: _493  and  _496
REMARK  193  A    between atoms: _496  and  _497
REMARK  194  A    between atoms: _502  and  _504
REMARK  195  A    between atoms: _504  and  _505
REMARK  196  A    between atoms: _504  and  _507
REMARK  197  A    between atoms: _507  and  _508
REMARK  198  A    between atoms: _508  and  _509
REMARK  199  A    between atoms: _512  and  _514
REMARK  200  A    between atoms: _514  and  _515
REMARK  201  A    between atoms: _517  and  _519
REMARK  202  A    between atoms: _519  and  _520
REMARK  203  A    between atoms: _519  and  _522
REMARK  204  A    between atoms: _522  and  _523
REMARK  205  A    between atoms: _525  and  _527
REMARK  206  A    between atoms: _527  and  _528
REMARK  207  A    between atoms: _527  and  _530
REMARK  208  A    between atoms: _530  and  _531
REMARK  209  A    between atoms: _537  and  _539
REMARK  210  A    between atoms: _539  and  _540
REMARK  211  A    between atoms: _539  and  _542
REMARK  212  A    between atoms: _542  and  _543
REMARK  213  A    between atoms: _549  and  _551
REMARK  214  A    between atoms: _551  and  _552
REMARK  215  A    between atoms: _551  and  _554
REMARK  216  A    between atoms: _554  and  _555
REMARK  217  A    between atoms: _558  and  _560
REMARK  218  A    between atoms: _560  and  _561
REMARK  219  A    between atoms: _560  and  _563
REMARK  220  A    between atoms: _563  and  _564
REMARK  221  A    between atoms: _567  and  _569
REMARK  222  A    between atoms: _569  and  _570
REMARK  223  A    between atoms: _569  and  _572
REMARK  224  A    between atoms: _572  and  _573
REMARK  225  A    between atoms: _578  and  _579
REMARK  226  A    between atoms: _581  and  _583
REMARK  227  A    between atoms: _583  and  _584
REMARK  228  A    between atoms: _586  and  _588
REMARK  229  A    between atoms: _588  and  _589
REMARK  230  A    between atoms: _592  and  _594
REMARK  231  A    between atoms: _594  and  _595
REMARK  232  A    between atoms: _594  and  _597
REMARK  233  A    between atoms: _597  and  _598
REMARK  234  A    between atoms: _601  and  _603
REMARK  235  A    between atoms: _603  and  _604
REMARK  236  A    between atoms: _603  and  _606
REMARK  237  A    between atoms: _606  and  _607
REMARK  238  A    between atoms: _609  and  _611
REMARK  239  A    between atoms: _611  and  _612
REMARK  240  A    between atoms: _611  and  _614
REMARK  241  A    between atoms: _617  and  _619
REMARK  242  A    between atoms: _619  and  _620
REMARK  243  A    between atoms: _619  and  _622
REMARK  244  A    between atoms: _622  and  _623
REMARK  245  A    between atoms: _628  and  _630
REMARK  246  A    between atoms: _630  and  _631
REMARK  247  A    between atoms: _630  and  _633
REMARK  248  A    between atoms: _633  and  _634
REMARK  249  A    between atoms: _644  and  _646
REMARK  250  A    between atoms: _646  and  _647
REMARK  251  A    between atoms: _646  and  _649
REMARK  252  A    between atoms: _649  and  _650
REMARK  253  A    between atoms: _650  and  _651
REMARK  254  A    between atoms: _653  and  _655
REMARK  255  A    between atoms: _655  and  _656
REMARK  256  A    between atoms: _655  and  _658
REMARK  257  A    between atoms: _658  and  _659
REMARK  258  A    between atoms: _662  and  _664
REMARK  259  A    between atoms: _664  and  _665
REMARK  260  A    between atoms: _664  and  _667
REMARK  261  A    between atoms: _667  and  _668
REMARK  262  A    between atoms: _673  and  _675
REMARK  263  A    between atoms: _675  and  _676
REMARK  264  A    between atoms: _678  and  _680
REMARK  265  A    between atoms: _680  and  _681
REMARK  266  A    between atoms: _680  and  _683
REMARK  267  A    between atoms: _683  and  _684
REMARK  268  A    between atoms: _689  and  _690
REMARK  269  A    between atoms: _692  and  _694
REMARK  270  A    between atoms: _694  and  _695
REMARK  271  A    between atoms: _694  and  _697
REMARK  272  A    between atoms: _697  and  _698
REMARK  273  A    between atoms: _698  and  _699
REMARK  274  A    between atoms: _702  and  _704
REMARK  275  A    between atoms: _704  and  _705
REMARK  276  A    between atoms: _704  and  _707
REMARK  277  A    between atoms: _707  and  _708
REMARK                            x       y       z     vdW  Elec       q    Type
REMARK                         _______ _______ _______ _____ _____    ______ ____
ROOT
ATOM      1  CA  TRP A   2      -0.371  72.302  64.785  0.00  0.00    +0.153 C 
ENDROOT
BRANCH   1   3
ATOM      2  C   MET A   1      -0.077  74.748  64.903  0.00  0.00    +0.238 C 
ATOM      3  N   TRP A   2      -0.191  73.563  65.517  0.00  0.00    -0.297 N 
ATOM      4  H   TRP A   2      -0.150  73.534  66.556  0.00  0.00    +0.150 HD
ATOM      5  O   MET A   1      -0.115  74.879  63.701  0.00  0.00    -0.274 OA
BRANCH   2   6
ATOM      6  CA  MET A   1       0.091  76.013  65.785  0.00  0.00    +0.146 C 
BRANCH   6   7
ATOM      7  N   MET A   1      -0.133  75.706  67.180  0.00  0.00    -0.238 NA
ATOM      8  H   MET A   1       0.660  75.784  67.849  0.00  0.00    +0.142 HD
ENDBRANCH   6   7
BRANCH   6   9
ATOM      9  CB  MET A   1       1.501  76.546  65.584  0.00  0.00    +0.038 C 
BRANCH   9  10
ATOM     10  CG  MET A   1       2.596  75.490  65.788  0.00  0.00    +0.060 C 
BRANCH  10  11
ATOM     11  SD  MET A   1       4.257  76.236  65.657  0.00  0.00    -0.139 S 
ATOM     12  CE  MET A   1       4.510  76.213  63.857  0.00  0.00    +0.069 C 
ENDBRANCH  10  11
ENDBRANCH   9  10
ENDBRANCH   6   9
ENDBRANCH   2   6
ENDBRANCH   1   3
BRANCH   1  13
ATOM     13  C   TRP A   2      -1.795  71.743  64.881  0.00  0.00    +0.241 C 
ATOM     14  N   ASN A   3      -2.596  72.332  65.756  0.00  0.00    -0.297 N 
ATOM     15  H   ASN A   3      -2.235  73.130  66.317  0.00  0.00    +0.150 HD
ATOM     16  O   TRP A   2      -2.163  70.804  64.145  0.00  0.00    -0.273 OA
BRANCH  14  17
ATOM     17  CA  ASN A   3      -3.974  71.888  65.952  0.00  0.00    +0.158 C 
BRANCH  17  18
ATOM     18  C   ASN A   3      -4.923  72.398  64.881  0.00  0.00    +0.244 C 
ATOM     19  N   PRO A   4      -6.019  71.667  64.649  0.00  0.00    -0.273 N 
ATOM     20  CD  PRO A   4      -6.541  70.530  65.435  0.00  0.00    +0.094 C 
ATOM     21  CG  PRO A   4      -7.695  70.045  64.598  0.00  0.00    +0.024 C 
ATOM     22  CB  PRO A   4      -8.187  71.233  63.829  0.00  0.00    +0.030 C 
ATOM     23  CA  PRO A   4      -6.966  72.139  63.643  0.00  0.00    +0.140 C 
ATOM     24  O   ASN A   3      -4.673  73.408  64.240  0.00  0.00    -0.273 OA
BRANCH  23  25
ATOM     25  C   PRO A   4      -7.362  73.589  64.061  0.00  0.00    +0.227 C 
ATOM     26  O   PRO A   4      -7.631  73.824  65.234  0.00  0.00    -0.286 OA
ENDBRANCH  23  25
ENDBRANCH  17  18
BRANCH  17  27
ATOM     27  CB  ASN A   3      -4.525  72.377  67.300  0.00  0.00    +0.114 C 
BRANCH  27  28
ATOM     28  CG  ASN A   3      -4.140  71.464  68.478  0.00  0.00    +0.222 C 
ATOM     29  ND2 ASN A   3      -4.087  72.052  69.688  0.00  0.00    -0.329 N 
ATOM     30 HD21 ASN A   3      -3.871  71.485  70.533  0.00  0.00    +0.145 HD
ATOM     31 HD22 ASN A   3      -4.262  73.073  69.778  0.00  0.00    +0.145 HD
ATOM     32  OD1 ASN A   3      -3.939  70.247  68.315  0.00  0.00    -0.275 OA
ENDBRANCH  27  28
ENDBRANCH  17  27
ENDBRANCH  14  17
ENDBRANCH   1  13
BRANCH   1  33
ATOM     33  CB  TRP A   2       0.619  71.224  65.287  0.00  0.00    +0.057 C 
BRANCH  33  34
ATOM     34  CG  TRP A   2       2.079  71.654  65.187  0.00  0.00    -0.002 A 
ATOM     35  CD1 TRP A   2       2.907  71.996  66.217  0.00  0.00    +0.068 A 
ATOM     36  NE1 TRP A   2       4.152  72.396  65.726  0.00  0.00    -0.352 N 
ATOM     37  HE1 TRP A   2       4.963  72.702  66.301  0.00  0.00    +0.166 HD
ATOM     38  CE2 TRP A   2       4.125  72.317  64.363  0.00  0.00    +0.056 A 
ATOM     39  CZ2 TRP A   2       5.126  72.619  63.421  0.00  0.00    +0.017 A 
ATOM     40  CH2 TRP A   2       4.822  72.449  62.093  0.00  0.00    +0.001 A 
ATOM     41  CZ3 TRP A   2       3.546  71.983  61.675  0.00  0.00    +0.000 A 
ATOM     42  CE3 TRP A   2       2.537  71.678  62.618  0.00  0.00    +0.001 A 
ATOM     43  CD2 TRP A   2       2.830  71.846  63.986  0.00  0.00    +0.013 A 
ENDBRANCH  33  34
ENDBRANCH   1  33
TORSDOF 14
REMARK  Name = ../refined-set-2016/1h22/1h22_pocket.pdb
REMARK  277 active torsions:
REMARK  status: ('A' for Active; 'I' for Inactive)
REMARK    1  A    between atoms: _1  and  _3
REMARK    2  A    between atoms: _3  and  _4
REMARK    3  A    between atoms: _3  and  _6
REMARK    4  A    between atoms: _6  and  _7
REMARK    5  A    between atoms: _7  and  _8
REMARK    6  A    between atoms: _13  and  _15
REMARK    7  A    between atoms: _15  and  _16
REMARK    8  A    between atoms: _15  and  _18
REMARK    9  A    between atoms: _18  and  _19
REMARK   10  A    between atoms: _24  and  _25
REMARK   11  A    between atoms: _27  and  _29
REMARK   12  A    between atoms: _29  and  _30
REMARK   13  A    between atoms: _29  and  _32
REMARK   14  A    between atoms: _35  and  _37
REMARK   15  A    between atoms: _37  and  _38
REMARK   16  A    between atoms: _37  and  _40
REMARK   17  A    between atoms: _40  and  _41
REMARK   18  A    between atoms: _44  and  _46
REMARK   19  A    between atoms: _46  and  _47
REMARK   20  A    between atoms: _46  and  _49
REMARK   21  A    between atoms: _49  and  _50
REMARK   22  A    between atoms: _50  and  _51
REMARK   23  A    between atoms: _54  and  _56
REMARK   24  A    between atoms: _56  and  _57
REMARK   25  A    between atoms: _56  and  _59
REMARK   26  A    between atoms: _59  and  _60
REMARK   27  A    between atoms: _60  and  _61
REMARK   28  A    between atoms: _66  and  _68
REMARK   29  A    between atoms: _68  and  _69
REMARK   30  A    between atoms: _68  and  _71
REMARK   31  A    between atoms: _71  and  _72
REMARK   32  A    between atoms: _78  and  _80
REMARK   33  A    between atoms: _80  and  _81
REMARK   34  A    between atoms: _83  and  _85
REMARK   35  A    between atoms: _85  and  _86
REMARK   36  A    between atoms: _85  and  _88
REMARK   37  A    between atoms: _88  and  _89
REMARK   38  A    between atoms: _91  and  _93
REMARK   39  A    between atoms: _93  and  _94
REMARK   40  A    between atoms: _93  and  _96
REMARK   41  A    between atoms: _96  and  _97
REMARK   42  A    between atoms: _97  and  _98
REMARK   43  A    between atoms: _100  and  _102
REMARK   44  A    between atoms: _102  and  _103
REMARK   45  A    between atoms: _102  and  _105
REMARK   46  A    between atoms: _105  and  _106
REMARK   47  A    between atoms: _116  and  _118
REMARK   48  A    between atoms: _118  and  _119
REMARK   49  A    between atoms: _118  and  _121
REMARK   50  A    between atoms: _121  and  _122
REMARK   51  A    between atoms: _128  and  _129
REMARK   52  A    between atoms: _134  and  _136
REMARK   53  A    between atoms: _136  and  _137
REMARK   54  A    between atoms: _136  and  _139
REMARK   55  A    between atoms: _139  and  _140
REMARK   56  A    between atoms: _150  and  _152
REMARK   57  A    between atoms: _152  and  _153
REMARK   58  A    between atoms: _152  and  _155
REMARK   59  A    between atoms: _155  and  _156
REMARK   60  A    between atoms: _159  and  _161
REMARK   61  A    between atoms: _161  and  _162
REMARK   62  A    between atoms: _161  and  _164
REMARK   63  A    between atoms: _164  and  _165
REMARK   64  A    between atoms: _170  and  _171
REMARK   65  A    between atoms: _173  and  _175
REMARK   66  A    between atoms: _175  and  _176
REMARK   67  A    between atoms: _178  and  _180
REMARK   68  A    between atoms: _180  and  _181
REMARK   69  A    between atoms: _183  and  _185
REMARK   70  A    between atoms: _185  and  _186
REMARK   71  A    between atoms: _188  and  _190
REMARK   72  A    between atoms: _190  and  _191
REMARK   73  A    between atoms: _190  and  _193
REMARK   74  A    between atoms: _193  and  _194
REMARK   75  A    between atoms: _200  and  _202
REMARK   76  A    between atoms: _202  and  _203
REMARK   77  A    between atoms: _202  and  _205
REMARK   78  A    between atoms: _205  and  _206
REMARK   79  A    between atoms: _211  and  _212
REMARK   80  A    between atoms: _214  and  _216
REMARK   81  A    between atoms: _216  and  _217
REMARK   82  A    between atoms: _216  and  _219
REMARK   83  A    between atoms: _219  and  _220
REMARK   84  A    between atoms: _222  and  _224
REMARK   85  A    between atoms: _224  and  _225
REMARK   86  A    between atoms: _227  and  _229
REMARK   87  A    between atoms: _229  and  _230
REMARK   88  A    between atoms: _229  and  _232
REMARK   89  A    between atoms: _232  and  _233
REMARK   90  A    between atoms: _235  and  _237
REMARK   91  A    between atoms: _237  and  _238
REMARK   92  A    between atoms: _237  and  _240
REMARK   93  A    between atoms: _240  and  _241
REMARK   94  A    between atoms: _243  and  _245
REMARK   95  A    between atoms: _245  and  _246
REMARK   96  A    between atoms: _245  and  _248
REMARK   97  A    between atoms: _248  and  _249
REMARK   98  A    between atoms: _252  and  _254
REMARK   99  A    between atoms: _254  and  _255
REMARK  100  A    between atoms: _254  and  _257
REMARK  101  A    between atoms: _257  and  _258
REMARK  102  A    between atoms: _261  and  _263
REMARK  103  A    between atoms: _263  and  _264
REMARK  104  A    between atoms: _263  and  _266
REMARK  105  A    between atoms: _269  and  _271
REMARK  106  A    between atoms: _271  and  _272
REMARK  107  A    between atoms: _271  and  _274
REMARK  108  A    between atoms: _274  and  _275
REMARK  109  A    between atoms: _280  and  _281
REMARK  110  A    between atoms: _283  and  _285
REMARK  111  A    between atoms: _285  and  _286
REMARK  112  A    between atoms: _285  and  _288
REMARK  113  A    between atoms: _288  and  _289
REMARK  114  A    between atoms: _294  and  _295
REMARK  115  A    between atoms: _297  and  _299
REMARK  116  A    between atoms: _299  and  _300
REMARK  117  A    between atoms: _299  and  _302
REMARK  118  A    between atoms: _305  and  _307
REMARK  119  A    between atoms: _307  and  _308
REMARK  120  A    between atoms: _307  and  _310
REMARK  121  A    between atoms: _310  and  _311
REMARK  122  A    between atoms: _311  and  _312
REMARK  123  A    between atoms: _315  and  _317
REMARK  124  A    between atoms: _317  and  _318
REMARK  125  A    between atoms: _317  and  _320
REMARK  126  A    between atoms: _320  and  _321
REMARK  127  A    between atoms: _323  and  _325
REMARK  128  A    between atoms: _325  and  _326
REMARK  129  A    between atoms: _329  and  _331
REMARK  130  A    between atoms: _331  and  _332
REMARK  131  A    between atoms: _334  and  _336
REMARK  132  A    between atoms: _336  and  _337
REMARK  133  A    between atoms: _336  and  _339
REMARK  134  A    between atoms: _339  and  _340
REMARK  135  A    between atoms: _342  and  _344
REMARK  136  A    between atoms: _344  and  _345
REMARK  137  A    between atoms: _344  and  _347
REMARK  138  A    between atoms: _347  and  _348
REMARK  139  A    between atoms: _358  and  _360
REMARK  140  A    between atoms: _360  and  _361
REMARK  141  A    between atoms: _360  and  _363
REMARK  142  A    between atoms: _363  and  _364
REMARK  143  A    between atoms: _364  and  _365
REMARK  144  A    between atoms: _368  and  _370
REMARK  145  A    between atoms: _370  and  _371
REMARK  146  A    between atoms: _370  and  _373
REMARK  147  A    between atoms: _373  and  _374
REMARK  148  A    between atoms: _384  and  _386
REMARK  149  A    between atoms: _386  and  _387
REMARK  150  A    between atoms: _386  and  _389
REMARK  151  A    between atoms: _389  and  _390
REMARK  152  A    between atoms: _395  and  _397
REMARK  153  A    between atoms: _397  and  _398
REMARK  154  A    between atoms: _397  and  _400
REMARK  155  A    between atoms: _400  and  _401
REMARK  156  A    between atoms: _404  and  _406
REMARK  157  A    between atoms: _406  and  _407
REMARK  158  A    between atoms: _406  and  _409
REMARK  159  A    between atoms: _409  and  _410
REMARK  160  A    between atoms: _416  and  _418
REMARK  161  A    between atoms: _418  and  _419
REMARK  162  A    between atoms: _418  and  _421
REMARK  163  A    between atoms: _421  and  _422
REMARK  164  A    between atoms: _425  and  _427
REMARK  165  A    between atoms: _427  and  _428
REMARK  166  A    between atoms: _427  and  _430
REMARK  167  A    between atoms: _430  and  _431
REMARK  168  A    between atoms: _433  and  _435
REMARK  169  A    between atoms: _435  and  _436
REMARK  170  A    between atoms: _435  and  _438
REMARK  171  A    between atoms: _438  and  _439
REMARK  172  A    between atoms: _442  and  _444
REMARK  173  A    between atoms: _444  and  _445
REMARK  174  A    between atoms: _444  and  _447
REMARK  175  A    between atoms: _447  and  _448
REMARK  176  A    between atoms: _454  and  _456
REMARK  177  A    between atoms: _456  and  _457
REMARK  178  A    between atoms: _456  and  _459
REMARK  179  A    between atoms: _459  and  _460
REMARK  180  A    between atoms: _460  and  _461
REMARK  181  A    between atoms: _461  and  _462
REMARK  182  A    between atoms: _471  and  _473
REMARK  183  A    between atoms: _473  and  _474
REMARK  184  A    between atoms: _473  and  _476
REMARK  185  A    between atoms: _476  and  _477
REMARK  186  A    between atoms: _483  and  _485
REMARK  187  A    between atoms: _485  and  _486
REMARK  188  A    between atoms: _485  and  _488
REMARK  189  A    between atoms: _488  and  _489
REMARK  190  A    between atoms: _491  and  _493
REMARK  191  A    between atoms: _493  and  _494
REMARK  192  A    between atoms: _493  and  _496
REMARK  193  A    between atoms: _496  and  _497
REMARK  194  A    between atoms: _502  and  _504
REMARK  195  A    between atoms: _504  and  _505
REMARK  196  A    between atoms: _504  and  _507
REMARK  197  A    between atoms: _507  and  _508
REMARK  198  A    between atoms: _508  and  _509
REMARK  199  A    between atoms: _512  and  _514
REMARK  200  A    between atoms: _514  and  _515
REMARK  201  A    between atoms: _517  and  _519
REMARK  202  A    between atoms: _519  and  _520
REMARK  203  A    between atoms: _519  and  _522
REMARK  204  A    between atoms: _522  and  _523
REMARK  205  A    between atoms: _525  and  _527
REMARK  206  A    between atoms: _527  and  _528
REMARK  207  A    between atoms: _527  and  _530
REMARK  208  A    between atoms: _530  and  _531
REMARK  209  A    between atoms: _537  and  _539
REMARK  210  A    between atoms: _539  and  _540
REMARK  211  A    between atoms: _539  and  _542
REMARK  212  A    between atoms: _542  and  _543
REMARK  213  A    between atoms: _549  and  _551
REMARK  214  A    between atoms: _551  and  _552
REMARK  215  A    between atoms: _551  and  _554
REMARK  216  A    between atoms: _554  and  _555
REMARK  217  A    between atoms: _558  and  _560
REMARK  218  A    between atoms: _560  and  _561
REMARK  219  A    between atoms: _560  and  _563
REMARK  220  A    between atoms: _563  and  _564
REMARK  221  A    between atoms: _567  and  _569
REMARK  222  A    between atoms: _569  and  _570
REMARK  223  A    between atoms: _569  and  _572
REMARK  224  A    between atoms: _572  and  _573
REMARK  225  A    between atoms: _578  and  _579
REMARK  226  A    between atoms: _581  and  _583
REMARK  227  A    between atoms: _583  and  _584
REMARK  228  A    between atoms: _586  and  _588
REMARK  229  A    between atoms: _588  and  _589
REMARK  230  A    between atoms: _592  and  _594
REMARK  231  A    between atoms: _594  and  _595
REMARK  232  A    between atoms: _594  and  _597
REMARK  233  A    between atoms: _597  and  _598
REMARK  234  A    between atoms: _601  and  _603
REMARK  235  A    between atoms: _603  and  _604
REMARK  236  A    between atoms: _603  and  _606
REMARK  237  A    between atoms: _606  and  _607
REMARK  238  A    between atoms: _609  and  _611
REMARK  239  A    between atoms: _611  and  _612
REMARK  240  A    between atoms: _611  and  _614
REMARK  241  A    between atoms: _617  and  _619
REMARK  242  A    between atoms: _619  and  _620
REMARK  243  A    between atoms: _619  and  _622
REMARK  244  A    between atoms: _622  and  _623
REMARK  245  A    between atoms: _628  and  _630
REMARK  246  A    between atoms: _630  and  _631
REMARK  247  A    between atoms: _630  and  _633
REMARK  248  A    between atoms: _633  and  _634
REMARK  249  A    between atoms: _644  and  _646
REMARK  250  A    between atoms: _646  and  _647
REMARK  251  A    between atoms: _646  and  _649
REMARK  252  A    between atoms: _649  and  _650
REMARK  253  A    between atoms: _650  and  _651
REMARK  254  A    between atoms: _653  and  _655
REMARK  255  A    between atoms: _655  and  _656
REMARK  256  A    between atoms: _655  and  _658
REMARK  257  A    between atoms: _658  and  _659
REMARK  258  A    between atoms: _662  and  _664
REMARK  259  A    between atoms: _664  and  _665
REMARK  260  A    between atoms: _664  and  _667
REMARK  261  A    between atoms: _667  and  _668
REMARK  262  A    between atoms: _673  and  _675
REMARK  263  A    between atoms: _675  and  _676
REMARK  264  A    between atoms: _678  and  _680
REMARK  265  A    between atoms: _680  and  _681
REMARK  266  A    between atoms: _680  and  _683
REMARK  267  A    between atoms: _683  and  _684
REMARK  268  A    between atoms: _689  and  _690
REMARK  269  A    between atoms: _692  and  _694
REMARK  270  A    between atoms: _694  and  _695
REMARK  271  A    between atoms: _694  and  _697
REMARK  272  A    between atoms: _697  and  _698
REMARK  273  A    between atoms: _698  and  _699
REMARK  274  A    between atoms: _702  and  _704
REMARK  275  A    between atoms: _704  and  _705
REMARK  276  A    between atoms: _704  and  _707
REMARK  277  A    between atoms: _707  and  _708
REMARK                            x       y       z     vdW  Elec       q    Type
REMARK                         _______ _______ _______ _____ _____    ______ ____
ROOT
ATOM      1  CA  PHE A   7      -1.061  60.012  59.794  0.00  0.00    +0.153 C 
ENDROOT
BRANCH   1   4
ATOM      2  C   GLY A   6       0.734  60.167  61.460  0.00  0.00    +0.243 C 
ATOM      3  O   GLY A   6       0.454  59.069  61.983  0.00  0.00    -0.273 OA
ATOM      4  N   PHE A   7       0.108  60.649  60.386  0.00  0.00    -0.297 N 
ATOM      5  H   PHE A   7       0.471  61.521  59.950  0.00  0.00    +0.150 HD
BRANCH   2   6
ATOM      6  CA  GLY A   6       1.888  61.016  61.997  0.00  0.00    +0.176 C 
BRANCH   6   9
ATOM      7  C   GLY A   5       0.935  63.270  61.953  0.00  0.00    +0.243 C 
ATOM      8  O   GLY A   5      -0.113  62.855  62.464  0.00  0.00    -0.273 OA
ATOM      9  N   GLY A   6       1.950  62.445  61.652  0.00  0.00    -0.295 N 
ATOM     10  H   GLY A   6       2.791  62.821  61.169  0.00  0.00    +0.150 HD
BRANCH   7  11
ATOM     11  CA  GLY A   5       1.112  64.779  61.651  0.00  0.00    +0.176 C 
BRANCH  11  13
ATOM     12  C   GLY A   4       2.130  64.894  59.493  0.00  0.00    +0.243 C 
ATOM     13  N   GLY A   5       1.085  65.174  60.254  0.00  0.00    -0.295 N 
ATOM     14  H   GLY A   5       0.259  65.668  59.859  0.00  0.00    +0.150 HD
ATOM     15  O   GLY A   4       3.159  64.310  59.920  0.00  0.00    -0.273 OA
BRANCH  12  16
ATOM     16  CA  GLY A   4       2.023  65.264  58.034  0.00  0.00    +0.176 C 
BRANCH  16  18
ATOM     17  C   TYR A   3       0.826  66.406  56.313  0.00  0.00    +0.241 C 
ATOM     18  N   GLY A   4       1.469  66.481  57.472  0.00  0.00    -0.295 N 
ATOM     19  H   GLY A   4       1.573  67.391  57.965  0.00  0.00    +0.150 HD
ATOM     20  O   TYR A   3       0.562  65.303  55.767  0.00  0.00    -0.273 OA
BRANCH  17  21
ATOM     21  CA  TYR A   3       0.412  67.767  55.673  0.00  0.00    +0.153 C 
BRANCH  21  23
ATOM     22  C   ILE A   2       1.107  67.315  53.383  0.00  0.00    +0.241 C 
ATOM     23  N   TYR A   3       0.129  67.643  54.244  0.00  0.00    -0.297 N 
ATOM     24  H   TYR A   3      -0.835  67.810  53.892  0.00  0.00    +0.150 HD
ATOM     25  O   ILE A   2       2.270  67.112  53.748  0.00  0.00    -0.273 OA
BRANCH  22  26
ATOM     26  CA  ILE A   2       0.757  67.198  51.881  0.00  0.00    +0.148 C 
BRANCH  26  28
ATOM     27  C   TRP A   1       0.796  69.264  50.531  0.00  0.00    +0.239 C 
ATOM     28  N   ILE A   2       1.451  68.285  51.140  0.00  0.00    -0.297 N 
ATOM     29  H   ILE A   2       2.490  68.277  51.098  0.00  0.00    +0.150 HD
ATOM     30  O   TRP A   1      -0.439  69.341  50.488  0.00  0.00    -0.274 OA
BRANCH  27  31
ATOM     31  CA  TRP A   1       1.680  70.292  49.858  0.00  0.00    +0.149 C 
BRANCH  31  32
ATOM     32  N   TRP A   1       1.314  70.554  48.489  0.00  0.00    -0.238 NA
ATOM     33  H   TRP A   1       0.603  71.294  48.317  0.00  0.00    +0.142 HD
ENDBRANCH  31  32
BRANCH  31  34
ATOM     34  CB  TRP A   1       1.663  71.615  50.659  0.00  0.00    +0.054 C 
BRANCH  34  35
ATOM     35  CG  TRP A   1       1.973  71.424  52.152  0.00  0.00    -0.002 A 
ATOM     36  CD1 TRP A   1       1.096  71.546  53.206  0.00  0.00    +0.068 A 
ATOM     37  NE1 TRP A   1       1.752  71.373  54.411  0.00  0.00    -0.352 N 
ATOM     38  HE1 TRP A   1       1.316  71.417  55.354  0.00  0.00    +0.166 HD
ATOM     39  CE2 TRP A   1       3.077  71.134  54.148  0.00  0.00    +0.056 A 
ATOM     40  CZ2 TRP A   1       4.144  70.912  55.036  0.00  0.00    +0.017 A 
ATOM     41  CH2 TRP A   1       5.396  70.700  54.477  0.00  0.00    +0.001 A 
ATOM     42  CZ3 TRP A   1       5.595  70.690  53.075  0.00  0.00    +0.000 A 
ATOM     43  CE3 TRP A   1       4.521  70.907  52.186  0.00  0.00    +0.001 A 
ATOM     44  CD2 TRP A   1       3.246  71.142  52.726  0.00  0.00    +0.013 A 
ENDBRANCH  34  35
ENDBRANCH  31  34
ENDBRANCH  27  31
ENDBRANCH  26  28
BRANCH  26  45
ATOM     45  CB  ILE A   2       1.224  65.809  51.348  0.00  0.00    +0.027 C 
ATOM     46  CG2 ILE A   2       0.459  64.652  52.061  0.00  0.00    +0.002 C 
BRANCH  45  47
ATOM     47  CG1 ILE A   2       0.907  65.728  49.848  0.00  0.00    +0.002 C 
ATOM     48  CD1 ILE A   2       1.396  64.390  49.149  0.00  0.00    +0.000 C 
ENDBRANCH  45  47
ENDBRANCH  26  45
ENDBRANCH  22  26
ENDBRANCH  21  23
BRANCH  21  49
ATOM     49  CB  TYR A   3      -0.768  68.437  56.434  0.00  0.00    +0.055 C 
BRANCH  49  50
ATOM     50  CG  TYR A   3      -2.148  67.767  56.333  0.00  0.00    -0.020 A 
ATOM     51  CD2 TYR A   3      -2.394  66.509  56.890  0.00  0.00    -0.001 A 
ATOM     52  CE2 TYR A   3      -3.669  65.954  56.870  0.00  0.00    +0.036 A 
ATOM     53  CZ  TYR A   3      -4.731  66.676  56.267  0.00  0.00    +0.134 A 
ATOM     54  CE1 TYR A   3      -4.487  67.929  55.718  0.00  0.00    +0.036 A 
ATOM     55  CD1 TYR A   3      -3.217  68.447  55.758  0.00  0.00    -0.001 A 
BRANCH  53  56
ATOM     56  OH  TYR A   3      -6.018  66.172  56.202  0.00  0.00    -0.506 OA
ATOM     57  HH  TYR A   3      -6.635  66.784  56.677  0.00  0.00    +0.292 HD
ENDBRANCH  53  56
ENDBRANCH  49  50
ENDBRANCH  21  49
ENDBRANCH  17  21
ENDBRANCH  16  18
ENDBRANCH  12  16
ENDBRANCH  11  13
ENDBRANCH   7  11
ENDBRANCH   6   9
ENDBRANCH   2   6
ENDBRANCH   1   4
BRANCH   1  58
ATOM     58  C   PHE A   7      -2.285  60.060  60.739  0.00  0.00    +0.241 C 
ATOM     59  N   TYR A   8      -2.173  60.712  61.904  0.00  0.00    -0.297 N 
ATOM     60  H   TYR A   8      -1.272  61.146  62.188  0.00  0.00    +0.150 HD
ATOM     61  O   PHE A   7      -3.348  59.518  60.394  0.00  0.00    -0.273 OA
BRANCH  59  62
ATOM     62  CA  TYR A   8      -3.361  60.798  62.773  0.00  0.00    +0.153 C 
BRANCH  62  63
ATOM     63  C   TYR A   8      -3.811  62.247  62.947  0.00  0.00    +0.241 C 
ATOM     64  O   TYR A   8      -4.820  62.505  63.639  0.00  0.00    -0.273 OA
ATOM     65  N   SER A   9      -3.055  63.202  62.378  0.00  0.00    -0.295 N 
ATOM     66  H   SER A   9      -2.206  62.953  61.831  0.00  0.00    +0.150 HD
BRANCH  65  67
ATOM     67  CA  SER A   9      -3.446  64.569  62.542  0.00  0.00    +0.178 C 
BRANCH  67  68
ATOM     68  C   SER A   9      -2.905  65.399  61.390  0.00  0.00    +0.243 C 
ATOM     69  N   GLY A  10      -3.353  66.667  61.339  0.00  0.00    -0.295 N 
ATOM     70  H   GLY A  10      -4.001  67.017  62.073  0.00  0.00    +0.150 HD
ATOM     71  O   SER A   9      -2.115  64.893  60.546  0.00  0.00    -0.273 OA
BRANCH  69  72
ATOM     72  CA  GLY A  10      -2.932  67.558  60.253  0.00  0.00    +0.176 C 
BRANCH  72  73
ATOM     73  C   GLY A  10      -4.127  68.255  59.604  0.00  0.00    +0.243 C 
ATOM     74  O   GLY A  10      -5.231  67.702  59.600  0.00  0.00    -0.273 OA
ATOM     75  N   SER A  11      -3.892  69.471  59.114  0.00  0.00    -0.295 N 
ATOM     76  H   SER A  11      -2.922  69.839  59.192  0.00  0.00    +0.150 HD
BRANCH  75  77
ATOM     77  CA  SER A  11      -4.885  70.329  58.476  0.00  0.00    +0.178 C 
BRANCH  77  78
ATOM     78  C   SER A  11      -4.183  71.116  57.383  0.00  0.00    +0.243 C 
ATOM     79  O   SER A  11      -3.002  71.492  57.489  0.00  0.00    -0.273 OA
ATOM     80  N   SER A  12      -4.895  71.374  56.316  0.00  0.00    -0.295 N 
ATOM     81  H   SER A  12      -5.877  71.038  56.249  0.00  0.00    +0.150 HD
BRANCH  80  82
ATOM     82  CA  SER A  12      -4.303  72.137  55.217  0.00  0.00    +0.178 C 
BRANCH  82  83
ATOM     83  C   SER A  12      -4.403  73.653  55.498  0.00  0.00    +0.243 C 
ATOM     84  N   THR A  13      -5.049  74.020  56.600  0.00  0.00    -0.295 N 
ATOM     85  H   THR A  13      -5.341  73.289  57.280  0.00  0.00    +0.150 HD
ATOM     86  O   SER A  12      -3.850  74.460  54.740  0.00  0.00    -0.273 OA
BRANCH  84  87
ATOM     87  CA  THR A  13      -5.359  75.409  56.883  0.00  0.00    +0.176 C 
BRANCH  87  88
ATOM     88  C   THR A  13      -4.539  76.099  57.956  0.00  0.00    +0.243 C 
ATOM     89  N   LEU A  14      -3.528  75.435  58.487  0.00  0.00    -0.298 N 
ATOM     90  H   LEU A  14      -3.315  74.472  58.157  0.00  0.00    +0.150 HD
ATOM     91  O   THR A  13      -4.835  77.232  58.320  0.00  0.00    -0.273 OA
BRANCH  89  92
ATOM     92  CA  LEU A  14      -2.709  76.037  59.528  0.00  0.00    +0.137 C 
BRANCH  92  93
ATOM     93  C   LEU A  14      -2.023  77.340  59.078  0.00  0.00    +0.227 C 
ATOM     94  O   LEU A  14      -1.590  77.454  57.929  0.00  0.00    -0.286 OA
ENDBRANCH  92  93
BRANCH  92  95
ATOM     95  CB  LEU A  14      -1.601  75.050  59.952  0.00  0.00    +0.028 C 
BRANCH  95  96
ATOM     96  CG  LEU A  14      -2.046  73.637  60.352  0.00  0.00    +0.002 C 
ATOM     97  CD2 LEU A  14      -3.094  73.702  61.471  0.00  0.00    +0.000 C 
ATOM     98  CD1 LEU A  14      -0.791  72.844  60.824  0.00  0.00    +0.000 C 
ENDBRANCH  95  96
ENDBRANCH  92  95
ENDBRANCH  89  92
ENDBRANCH  87  88
BRANCH  87  99
ATOM     99  CB  THR A  13      -6.867  75.509  57.312  0.00  0.00    +0.137 C 
ATOM    100  CG2 THR A  13      -7.802  74.868  56.275  0.00  0.00    +0.034 C 
BRANCH  99 101
ATOM    101  OG1 THR A  13      -7.050  74.809  58.560  0.00  0.00    -0.382 OA
ATOM    102  HG1 THR A  13      -6.477  75.221  59.255  0.00  0.00    +0.210 HD
ENDBRANCH  99 101
ENDBRANCH  87  99
ENDBRANCH  84  87
ENDBRANCH  82  83
BRANCH  82 103
ATOM    103  CB  SER A  12      -5.076  71.867  53.923  0.00  0.00    +0.166 C 
BRANCH 103 104
ATOM    104  OG  SER A  12      -6.438  72.286  54.078  0.00  0.00    -0.380 OA
ATOM    105  H   SER A  12      -6.934  72.110  53.239  0.00  0.00    +0.211 HD
ENDBRANCH 103 104
ENDBRANCH  82 103
ENDBRANCH  80  82
ENDBRANCH  77  78
BRANCH  77 106
ATOM    106  CB  SER A  11      -5.482  71.355  59.480  0.00  0.00    +0.166 C 
BRANCH 106 107
ATOM    107  OG  SER A  11      -6.063  70.709  60.623  0.00  0.00    -0.380 OA
ATOM    108  H   SER A  11      -5.368  70.183  61.092  0.00  0.00    +0.211 HD
ENDBRANCH 106 107
ENDBRANCH  77 106
ENDBRANCH  75  77
ENDBRANCH  72  73
ENDBRANCH  69  72
ENDBRANCH  67  68
BRANCH  67 109
ATOM    109  CB  SER A   9      -2.956  65.120  63.919  0.00  0.00    +0.166 C 
BRANCH 109 110
ATOM    110  OG  SER A   9      -1.589  65.474  63.873  0.00  0.00    -0.380 OA
ATOM    111  H   SER A   9      -1.050  64.676  63.643  0.00  0.00    +0.211 HD
ENDBRANCH 109 110
ENDBRANCH  67 109
ENDBRANCH  65  67
ENDBRANCH  62  63
BRANCH  62 112
ATOM    112  CB  TYR A   8      -3.107  60.208  64.175  0.00  0.00    +0.055 C 
BRANCH 112 113
ATOM    113  CG  TYR A   8      -2.165  61.045  65.027  0.00  0.00    -0.020 A 
ATOM    114  CD2 TYR A   8      -2.648  62.078  65.840  0.00  0.00    -0.001 A 
ATOM    115  CE2 TYR A   8      -1.724  62.936  66.576  0.00  0.00    +0.036 A 
ATOM    116  CZ  TYR A   8      -0.359  62.714  66.470  0.00  0.00    +0.134 A 
ATOM    117  CE1 TYR A   8       0.125  61.670  65.660  0.00  0.00    +0.036 A 
ATOM    118  CD1 TYR A   8      -0.771  60.852  64.951  0.00  0.00    -0.001 A 
BRANCH 116 119
ATOM    119  OH  TYR A   8       0.551  63.536  67.169  0.00  0.00    -0.506 OA
ATOM    120  HH  TYR A   8       0.050  64.215  67.687  0.00  0.00    +0.292 HD
ENDBRANCH 116 119
ENDBRANCH 112 113
ENDBRANCH  62 112
ENDBRANCH  59  62
ENDBRANCH   1  58
BRANCH   1 121
ATOM    121  CB  PHE A   7      -0.782  58.558  59.347  0.00  0.00    +0.055 C 
BRANCH 121 122
ATOM    122  CG  PHE A   7       0.174  58.459  58.164  0.00  0.00    -0.020 A 
ATOM    123  CD2 PHE A   7       1.458  57.902  58.326  0.00  0.00    -0.004 A 
ATOM    124  CE2 PHE A   7       2.337  57.753  57.234  0.00  0.00    -0.000 A 
ATOM    125  CZ  PHE A   7       1.919  58.174  55.935  0.00  0.00    -0.000 A 
ATOM    126  CE1 PHE A   7       0.637  58.734  55.777  0.00  0.00    -0.000 A 
ATOM    127  CD1 PHE A   7      -0.227  58.877  56.885  0.00  0.00    -0.004 A 
ENDBRANCH 121 122
ENDBRANCH   1 121
TORSDOF 50
REMARK  Name = ../refined-set-2016/1h22/1h22_pocket.pdb
REMARK  277 active torsions:
REMARK  status: ('A' for Active; 'I' for Inactive)
REMARK    1  A    between atoms: _1  and  _3
REMARK    2  A    between atoms: _3  and  _4
REMARK    3  A    between atoms: _3  and  _6
REMARK    4  A    between atoms: _6  and  _7
REMARK    5  A    between atoms: _7  and  _8
REMARK    6  A    between atoms: _13  and  _15
REMARK    7  A    between atoms: _15  and  _16
REMARK    8  A    between atoms: _15  and  _18
REMARK    9  A    between atoms: _18  and  _19
REMARK   10  A    between atoms: _24  and  _25
REMARK   11  A    between atoms: _27  and  _29
REMARK   12  A    between atoms: _29  and  _30
REMARK   13  A    between atoms: _29  and  _32
REMARK   14  A    between atoms: _35  and  _37
REMARK   15  A    between atoms: _37  and  _38
REMARK   16  A    between atoms: _37  and  _40
REMARK   17  A    between atoms: _40  and  _41
REMARK   18  A    between atoms: _44  and  _46
REMARK   19  A    between atoms: _46  and  _47
REMARK   20  A    between atoms: _46  and  _49
REMARK   21  A    between atoms: _49  and  _50
REMARK   22  A    between atoms: _50  and  _51
REMARK   23  A    between atoms: _54  and  _56
REMARK   24  A    between atoms: _56  and  _57
REMARK   25  A    between atoms: _56  and  _59
REMARK   26  A    between atoms: _59  and  _60
REMARK   27  A    between atoms: _60  and  _61
REMARK   28  A    between atoms: _66  and  _68
REMARK   29  A    between atoms: _68  and  _69
REMARK   30  A    between atoms: _68  and  _71
REMARK   31  A    between atoms: _71  and  _72
REMARK   32  A    between atoms: _78  and  _80
REMARK   33  A    between atoms: _80  and  _81
REMARK   34  A    between atoms: _83  and  _85
REMARK   35  A    between atoms: _85  and  _86
REMARK   36  A    between atoms: _85  and  _88
REMARK   37  A    between atoms: _88  and  _89
REMARK   38  A    between atoms: _91  and  _93
REMARK   39  A    between atoms: _93  and  _94
REMARK   40  A    between atoms: _93  and  _96
REMARK   41  A    between atoms: _96  and  _97
REMARK   42  A    between atoms: _97  and  _98
REMARK   43  A    between atoms: _100  and  _102
REMARK   44  A    between atoms: _102  and  _103
REMARK   45  A    between atoms: _102  and  _105
REMARK   46  A    between atoms: _105  and  _106
REMARK   47  A    between atoms: _116  and  _118
REMARK   48  A    between atoms: _118  and  _119
REMARK   49  A    between atoms: _118  and  _121
REMARK   50  A    between atoms: _121  and  _122
REMARK   51  A    between atoms: _128  and  _129
REMARK   52  A    between atoms: _134  and  _136
REMARK   53  A    between atoms: _136  and  _137
REMARK   54  A    between atoms: _136  and  _139
REMARK   55  A    between atoms: _139  and  _140
REMARK   56  A    between atoms: _150  and  _152
REMARK   57  A    between atoms: _152  and  _153
REMARK   58  A    between atoms: _152  and  _155
REMARK   59  A    between atoms: _155  and  _156
REMARK   60  A    between atoms: _159  and  _161
REMARK   61  A    between atoms: _161  and  _162
REMARK   62  A    between atoms: _161  and  _164
REMARK   63  A    between atoms: _164  and  _165
REMARK   64  A    between atoms: _170  and  _171
REMARK   65  A    between atoms: _173  and  _175
REMARK   66  A    between atoms: _175  and  _176
REMARK   67  A    between atoms: _178  and  _180
REMARK   68  A    between atoms: _180  and  _181
REMARK   69  A    between atoms: _183  and  _185
REMARK   70  A    between atoms: _185  and  _186
REMARK   71  A    between atoms: _188  and  _190
REMARK   72  A    between atoms: _190  and  _191
REMARK   73  A    between atoms: _190  and  _193
REMARK   74  A    between atoms: _193  and  _194
REMARK   75  A    between atoms: _200  and  _202
REMARK   76  A    between atoms: _202  and  _203
REMARK   77  A    between atoms: _202  and  _205
REMARK   78  A    between atoms: _205  and  _206
REMARK   79  A    between atoms: _211  and  _212
REMARK   80  A    between atoms: _214  and  _216
REMARK   81  A    between atoms: _216  and  _217
REMARK   82  A    between atoms: _216  and  _219
REMARK   83  A    between atoms: _219  and  _220
REMARK   84  A    between atoms: _222  and  _224
REMARK   85  A    between atoms: _224  and  _225
REMARK   86  A    between atoms: _227  and  _229
REMARK   87  A    between atoms: _229  and  _230
REMARK   88  A    between atoms: _229  and  _232
REMARK   89  A    between atoms: _232  and  _233
REMARK   90  A    between atoms: _235  and  _237
REMARK   91  A    between atoms: _237  and  _238
REMARK   92  A    between atoms: _237  and  _240
REMARK   93  A    between atoms: _240  and  _241
REMARK   94  A    between atoms: _243  and  _245
REMARK   95  A    between atoms: _245  and  _246
REMARK   96  A    between atoms: _245  and  _248
REMARK   97  A    between atoms: _248  and  _249
REMARK   98  A    between atoms: _252  and  _254
REMARK   99  A    between atoms: _254  and  _255
REMARK  100  A    between atoms: _254  and  _257
REMARK  101  A    between atoms: _257  and  _258
REMARK  102  A    between atoms: _261  and  _263
REMARK  103  A    between atoms: _263  and  _264
REMARK  104  A    between atoms: _263  and  _266
REMARK  105  A    between atoms: _269  and  _271
REMARK  106  A    between atoms: _271  and  _272
REMARK  107  A    between atoms: _271  and  _274
REMARK  108  A    between atoms: _274  and  _275
REMARK  109  A    between atoms: _280  and  _281
REMARK  110  A    between atoms: _283  and  _285
REMARK  111  A    between atoms: _285  and  _286
REMARK  112  A    between atoms: _285  and  _288
REMARK  113  A    between atoms: _288  and  _289
REMARK  114  A    between atoms: _294  and  _295
REMARK  115  A    between atoms: _297  and  _299
REMARK  116  A    between atoms: _299  and  _300
REMARK  117  A    between atoms: _299  and  _302
REMARK  118  A    between atoms: _305  and  _307
REMARK  119  A    between atoms: _307  and  _308
REMARK  120  A    between atoms: _307  and  _310
REMARK  121  A    between atoms: _310  and  _311
REMARK  122  A    between atoms: _311  and  _312
REMARK  123  A    between atoms: _315  and  _317
REMARK  124  A    between atoms: _317  and  _318
REMARK  125  A    between atoms: _317  and  _320
REMARK  126  A    between atoms: _320  and  _321
REMARK  127  A    between atoms: _323  and  _325
REMARK  128  A    between atoms: _325  and  _326
REMARK  129  A    between atoms: _329  and  _331
REMARK  130  A    between atoms: _331  and  _332
REMARK  131  A    between atoms: _334  and  _336
REMARK  132  A    between atoms: _336  and  _337
REMARK  133  A    between atoms: _336  and  _339
REMARK  134  A    between atoms: _339  and  _340
REMARK  135  A    between atoms: _342  and  _344
REMARK  136  A    between atoms: _344  and  _345
REMARK  137  A    between atoms: _344  and  _347
REMARK  138  A    between atoms: _347  and  _348
REMARK  139  A    between atoms: _358  and  _360
REMARK  140  A    between atoms: _360  and  _361
REMARK  141  A    between atoms: _360  and  _363
REMARK  142  A    between atoms: _363  and  _364
REMARK  143  A    between atoms: _364  and  _365
REMARK  144  A    between atoms: _368  and  _370
REMARK  145  A    between atoms: _370  and  _371
REMARK  146  A    between atoms: _370  and  _373
REMARK  147  A    between atoms: _373  and  _374
REMARK  148  A    between atoms: _384  and  _386
REMARK  149  A    between atoms: _386  and  _387
REMARK  150  A    between atoms: _386  and  _389
REMARK  151  A    between atoms: _389  and  _390
REMARK  152  A    between atoms: _395  and  _397
REMARK  153  A    between atoms: _397  and  _398
REMARK  154  A    between atoms: _397  and  _400
REMARK  155  A    between atoms: _400  and  _401
REMARK  156  A    between atoms: _404  and  _406
REMARK  157  A    between atoms: _406  and  _407
REMARK  158  A    between atoms: _406  and  _409
REMARK  159  A    between atoms: _409  and  _410
REMARK  160  A    between atoms: _416  and  _418
REMARK  161  A    between atoms: _418  and  _419
REMARK  162  A    between atoms: _418  and  _421
REMARK  163  A    between atoms: _421  and  _422
REMARK  164  A    between atoms: _425  and  _427
REMARK  165  A    between atoms: _427  and  _428
REMARK  166  A    between atoms: _427  and  _430
REMARK  167  A    between atoms: _430  and  _431
REMARK  168  A    between atoms: _433  and  _435
REMARK  169  A    between atoms: _435  and  _436
REMARK  170  A    between atoms: _435  and  _438
REMARK  171  A    between atoms: _438  and  _439
REMARK  172  A    between atoms: _442  and  _444
REMARK  173  A    between atoms: _444  and  _445
REMARK  174  A    between atoms: _444  and  _447
REMARK  175  A    between atoms: _447  and  _448
REMARK  176  A    between atoms: _454  and  _456
REMARK  177  A    between atoms: _456  and  _457
REMARK  178  A    between atoms: _456  and  _459
REMARK  179  A    between atoms: _459  and  _460
REMARK  180  A    between atoms: _460  and  _461
REMARK  181  A    between atoms: _461  and  _462
REMARK  182  A    between atoms: _471  and  _473
REMARK  183  A    between atoms: _473  and  _474
REMARK  184  A    between atoms: _473  and  _476
REMARK  185  A    between atoms: _476  and  _477
REMARK  186  A    between atoms: _483  and  _485
REMARK  187  A    between atoms: _485  and  _486
REMARK  188  A    between atoms: _485  and  _488
REMARK  189  A    between atoms: _488  and  _489
REMARK  190  A    between atoms: _491  and  _493
REMARK  191  A    between atoms: _493  and  _494
REMARK  192  A    between atoms: _493  and  _496
REMARK  193  A    between atoms: _496  and  _497
REMARK  194  A    between atoms: _502  and  _504
REMARK  195  A    between atoms: _504  and  _505
REMARK  196  A    between atoms: _504  and  _507
REMARK  197  A    between atoms: _507  and  _508
REMARK  198  A    between atoms: _508  and  _509
REMARK  199  A    between atoms: _512  and  _514
REMARK  200  A    between atoms: _514  and  _515
REMARK  201  A    between atoms: _517  and  _519
REMARK  202  A    between atoms: _519  and  _520
REMARK  203  A    between atoms: _519  and  _522
REMARK  204  A    between atoms: _522  and  _523
REMARK  205  A    between atoms: _525  and  _527
REMARK  206  A    between atoms: _527  and  _528
REMARK  207  A    between atoms: _527  and  _530
REMARK  208  A    between atoms: _530  and  _531
REMARK  209  A    between atoms: _537  and  _539
REMARK  210  A    between atoms: _539  and  _540
REMARK  211  A    between atoms: _539  and  _542
REMARK  212  A    between atoms: _542  and  _543
REMARK  213  A    between atoms: _549  and  _551
REMARK  214  A    between atoms: _551  and  _552
REMARK  215  A    between atoms: _551  and  _554
REMARK  216  A    between atoms: _554  and  _555
REMARK  217  A    between atoms: _558  and  _560
REMARK  218  A    between atoms: _560  and  _561
REMARK  219  A    between atoms: _560  and  _563
REMARK  220  A    between atoms: _563  and  _564
REMARK  221  A    between atoms: _567  and  _569
REMARK  222  A    between atoms: _569  and  _570
REMARK  223  A    between atoms: _569  and  _572
REMARK  224  A    between atoms: _572  and  _573
REMARK  225  A    between atoms: _578  and  _579
REMARK  226  A    between atoms: _581  and  _583
REMARK  227  A    between atoms: _583  and  _584
REMARK  228  A    between atoms: _586  and  _588
REMARK  229  A    between atoms: _588  and  _589
REMARK  230  A    between atoms: _592  and  _594
REMARK  231  A    between atoms: _594  and  _595
REMARK  232  A    between atoms: _594  and  _597
REMARK  233  A    between atoms: _597  and  _598
REMARK  234  A    between atoms: _601  and  _603
REMARK  235  A    between atoms: _603  and  _604
REMARK  236  A    between atoms: _603  and  _606
REMARK  237  A    between atoms: _606  and  _607
REMARK  238  A    between atoms: _609  and  _611
REMARK  239  A    between atoms: _611  and  _612
REMARK  240  A    between atoms: _611  and  _614
REMARK  241  A    between atoms: _617  and  _619
REMARK  242  A    between atoms: _619  and  _620
REMARK  243  A    between atoms: _619  and  _622
REMARK  244  A    between atoms: _622  and  _623
REMARK  245  A    between atoms: _628  and  _630
REMARK  246  A    between atoms: _630  and  _631
REMARK  247  A    between atoms: _630  and  _633
REMARK  248  A    between atoms: _633  and  _634
REMARK  249  A    between atoms: _644  and  _646
REMARK  250  A    between atoms: _646  and  _647
REMARK  251  A    between atoms: _646  and  _649
REMARK  252  A    between atoms: _649  and  _650
REMARK  253  A    between atoms: _650  and  _651
REMARK  254  A    between atoms: _653  and  _655
REMARK  255  A    between atoms: _655  and  _656
REMARK  256  A    between atoms: _655  and  _658
REMARK  257  A    between atoms: _658  and  _659
REMARK  258  A    between atoms: _662  and  _664
REMARK  259  A    between atoms: _664  and  _665
REMARK  260  A    between atoms: _664  and  _667
REMARK  261  A    between atoms: _667  and  _668
REMARK  262  A    between atoms: _673  and  _675
REMARK  263  A    between atoms: _675  and  _676
REMARK  264  A    between atoms: _678  and  _680
REMARK  265  A    between atoms: _680  and  _681
REMARK  266  A    between atoms: _680  and  _683
REMARK  267  A    between atoms: _683  and  _684
REMARK  268  A    between atoms: _689  and  _690
REMARK  269  A    between atoms: _692  and  _694
REMARK  270  A    between atoms: _694  and  _695
REMARK  271  A    between atoms: _694  and  _697
REMARK  272  A    between atoms: _697  and  _698
REMARK  273  A    between atoms: _698  and  _699
REMARK  274  A    between atoms: _702  and  _704
REMARK  275  A    between atoms: _704  and  _705
REMARK  276  A    between atoms: _704  and  _707
REMARK  277  A    between atoms: _707  and  _708
REMARK                            x       y       z     vdW  Elec       q    Type
REMARK                         _______ _______ _______ _____ _____    ______ ____
ROOT
ATOM      1  CA  TYR A   2       0.901  76.360  55.783  0.00  0.00    +0.141 C 
ENDROOT
BRANCH   1   3
ATOM      2  C   VAL A   1       2.180  77.303  57.633  0.00  0.00    +0.238 C 
ATOM      3  N   TYR A   2       0.992  76.911  57.161  0.00  0.00    -0.298 N 
ATOM      4  H   TYR A   2       0.140  76.991  57.752  0.00  0.00    +0.150 HD
ATOM      5  O   VAL A   1       3.209  77.169  57.000  0.00  0.00    -0.274 OA
BRANCH   2   6
ATOM      6  CA  VAL A   1       2.287  77.866  59.034  0.00  0.00    +0.145 C 
BRANCH   6   7
ATOM      7  CB  VAL A   1       3.154  76.699  59.698  0.00  0.00    +0.025 C 
ATOM      8  CG2 VAL A   1       4.248  77.246  60.458  0.00  0.00    +0.002 C 
ATOM      9  CG1 VAL A   1       2.296  75.687  60.382  0.00  0.00    +0.002 C 
ENDBRANCH   6   7
BRANCH   6  10
ATOM     10  N   VAL A   1       0.956  78.165  59.594  0.00  0.00    -0.238 NA
ATOM     11  H   VAL A   1       0.566  77.598  60.374  0.00  0.00    +0.142 HD
ENDBRANCH   6  10
ENDBRANCH   2   6
ENDBRANCH   1   3
BRANCH   1  12
ATOM     12  C   TYR A   2       0.300  77.387  54.805  0.00  0.00    +0.227 C 
ATOM     13  O   TYR A   2      -0.062  77.029  53.672  0.00  0.00    -0.286 OA
ENDBRANCH   1  12
BRANCH   1  14
ATOM     14  CB  TYR A   2       0.029  75.071  55.735  0.00  0.00    +0.054 C 
BRANCH  14  15
ATOM     15  CG  TYR A   2       0.570  73.870  56.545  0.00  0.00    -0.020 A 
ATOM     16  CD2 TYR A   2      -0.297  72.861  56.976  0.00  0.00    -0.001 A 
ATOM     17  CE2 TYR A   2       0.147  71.764  57.705  0.00  0.00    +0.036 A 
ATOM     18  CZ  TYR A   2       1.520  71.649  58.026  0.00  0.00    +0.134 A 
ATOM     19  CE1 TYR A   2       2.419  72.639  57.619  0.00  0.00    +0.036 A 
ATOM     20  CD1 TYR A   2       1.935  73.756  56.865  0.00  0.00    -0.001 A 
BRANCH  18  21
ATOM     21  OH  TYR A   2       1.958  70.517  58.676  0.00  0.00    -0.506 OA
ATOM     22  HH  TYR A   2       1.764  69.722  58.119  0.00  0.00    +0.292 HD
ENDBRANCH  18  21
ENDBRANCH  14  15
ENDBRANCH   1  14
TORSDOF 8
REMARK  Name = ../refined-set-2016/1h22/1h22_pocket.pdb
REMARK  277 active torsions:
REMARK  status: ('A' for Active; 'I' for Inactive)
REMARK    1  A    between atoms: _1  and  _3
REMARK    2  A    between atoms: _3  and  _4
REMARK    3  A    between atoms: _3  and  _6
REMARK    4  A    between atoms: _6  and  _7
REMARK    5  A    between atoms: _7  and  _8
REMARK    6  A    between atoms: _13  and  _15
REMARK    7  A    between atoms: _15  and  _16
REMARK    8  A    between atoms: _15  and  _18
REMARK    9  A    between atoms: _18  and  _19
REMARK   10  A    between atoms: _24  and  _25
REMARK   11  A    between atoms: _27  and  _29
REMARK   12  A    between atoms: _29  and  _30
REMARK   13  A    between atoms: _29  and  _32
REMARK   14  A    between atoms: _35  and  _37
REMARK   15  A    between atoms: _37  and  _38
REMARK   16  A    between atoms: _37  and  _40
REMARK   17  A    between atoms: _40  and  _41
REMARK   18  A    between atoms: _44  and  _46
REMARK   19  A    between atoms: _46  and  _47
REMARK   20  A    between atoms: _46  and  _49
REMARK   21  A    between atoms: _49  and  _50
REMARK   22  A    between atoms: _50  and  _51
REMARK   23  A    between atoms: _54  and  _56
REMARK   24  A    between atoms: _56  and  _57
REMARK   25  A    between atoms: _56  and  _59
REMARK   26  A    between atoms: _59  and  _60
REMARK   27  A    between atoms: _60  and  _61
REMARK   28  A    between atoms: _66  and  _68
REMARK   29  A    between atoms: _68  and  _69
REMARK   30  A    between atoms: _68  and  _71
REMARK   31  A    between atoms: _71  and  _72
REMARK   32  A    between atoms: _78  and  _80
REMARK   33  A    between atoms: _80  and  _81
REMARK   34  A    between atoms: _83  and  _85
REMARK   35  A    between atoms: _85  and  _86
REMARK   36  A    between atoms: _85  and  _88
REMARK   37  A    between atoms: _88  and  _89
REMARK   38  A    between atoms: _91  and  _93
REMARK   39  A    between atoms: _93  and  _94
REMARK   40  A    between atoms: _93  and  _96
REMARK   41  A    between atoms: _96  and  _97
REMARK   42  A    between atoms: _97  and  _98
REMARK   43  A    between atoms: _100  and  _102
REMARK   44  A    between atoms: _102  and  _103
REMARK   45  A    between atoms: _102  and  _105
REMARK   46  A    between atoms: _105  and  _106
REMARK   47  A    between atoms: _116  and  _118
REMARK   48  A    between atoms: _118  and  _119
REMARK   49  A    between atoms: _118  and  _121
REMARK   50  A    between atoms: _121  and  _122
REMARK   51  A    between atoms: _128  and  _129
REMARK   52  A    between atoms: _134  and  _136
REMARK   53  A    between atoms: _136  and  _137
REMARK   54  A    between atoms: _136  and  _139
REMARK   55  A    between atoms: _139  and  _140
REMARK   56  A    between atoms: _150  and  _152
REMARK   57  A    between atoms: _152  and  _153
REMARK   58  A    between atoms: _152  and  _155
REMARK   59  A    between atoms: _155  and  _156
REMARK   60  A    between atoms: _159  and  _161
REMARK   61  A    between atoms: _161  and  _162
REMARK   62  A    between atoms: _161  and  _164
REMARK   63  A    between atoms: _164  and  _165
REMARK   64  A    between atoms: _170  and  _171
REMARK   65  A    between atoms: _173  and  _175
REMARK   66  A    between atoms: _175  and  _176
REMARK   67  A    between atoms: _178  and  _180
REMARK   68  A    between atoms: _180  and  _181
REMARK   69  A    between atoms: _183  and  _185
REMARK   70  A    between atoms: _185  and  _186
REMARK   71  A    between atoms: _188  and  _190
REMARK   72  A    between atoms: _190  and  _191
REMARK   73  A    between atoms: _190  and  _193
REMARK   74  A    between atoms: _193  and  _194
REMARK   75  A    between atoms: _200  and  _202
REMARK   76  A    between atoms: _202  and  _203
REMARK   77  A    between atoms: _202  and  _205
REMARK   78  A    between atoms: _205  and  _206
REMARK   79  A    between atoms: _211  and  _212
REMARK   80  A    between atoms: _214  and  _216
REMARK   81  A    between atoms: _216  and  _217
REMARK   82  A    between atoms: _216  and  _219
REMARK   83  A    between atoms: _219  and  _220
REMARK   84  A    between atoms: _222  and  _224
REMARK   85  A    between atoms: _224  and  _225
REMARK   86  A    between atoms: _227  and  _229
REMARK   87  A    between atoms: _229  and  _230
REMARK   88  A    between atoms: _229  and  _232
REMARK   89  A    between atoms: _232  and  _233
REMARK   90  A    between atoms: _235  and  _237
REMARK   91  A    between atoms: _237  and  _238
REMARK   92  A    between atoms: _237  and  _240
REMARK   93  A    between atoms: _240  and  _241
REMARK   94  A    between atoms: _243  and  _245
REMARK   95  A    between atoms: _245  and  _246
REMARK   96  A    between atoms: _245  and  _248
REMARK   97  A    between atoms: _248  and  _249
REMARK   98  A    between atoms: _252  and  _254
REMARK   99  A    between atoms: _254  and  _255
REMARK  100  A    between atoms: _254  and  _257
REMARK  101  A    between atoms: _257  and  _258
REMARK  102  A    between atoms: _261  and  _263
REMARK  103  A    between atoms: _263  and  _264
REMARK  104  A    between atoms: _263  and  _266
REMARK  105  A    between atoms: _269  and  _271
REMARK  106  A    between atoms: _271  and  _272
REMARK  107  A    between atoms: _271  and  _274
REMARK  108  A    between atoms: _274  and  _275
REMARK  109  A    between atoms: _280  and  _281
REMARK  110  A    between atoms: _283  and  _285
REMARK  111  A    between atoms: _285  and  _286
REMARK  112  A    between atoms: _285  and  _288
REMARK  113  A    between atoms: _288  and  _289
REMARK  114  A    between atoms: _294  and  _295
REMARK  115  A    between atoms: _297  and  _299
REMARK  116  A    between atoms: _299  and  _300
REMARK  117  A    between atoms: _299  and  _302
REMARK  118  A    between atoms: _305  and  _307
REMARK  119  A    between atoms: _307  and  _308
REMARK  120  A    between atoms: _307  and  _310
REMARK  121  A    between atoms: _310  and  _311
REMARK  122  A    between atoms: _311  and  _312
REMARK  123  A    between atoms: _315  and  _317
REMARK  124  A    between atoms: _317  and  _318
REMARK  125  A    between atoms: _317  and  _320
REMARK  126  A    between atoms: _320  and  _321
REMARK  127  A    between atoms: _323  and  _325
REMARK  128  A    between atoms: _325  and  _326
REMARK  129  A    between atoms: _329  and  _331
REMARK  130  A    between atoms: _331  and  _332
REMARK  131  A    between atoms: _334  and  _336
REMARK  132  A    between atoms: _336  and  _337
REMARK  133  A    between atoms: _336  and  _339
REMARK  134  A    between atoms: _339  and  _340
REMARK  135  A    between atoms: _342  and  _344
REMARK  136  A    between atoms: _344  and  _345
REMARK  137  A    between atoms: _344  and  _347
REMARK  138  A    between atoms: _347  and  _348
REMARK  139  A    between atoms: _358  and  _360
REMARK  140  A    between atoms: _360  and  _361
REMARK  141  A    between atoms: _360  and  _363
REMARK  142  A    between atoms: _363  and  _364
REMARK  143  A    between atoms: _364  and  _365
REMARK  144  A    between atoms: _368  and  _370
REMARK  145  A    between atoms: _370  and  _371
REMARK  146  A    between atoms: _370  and  _373
REMARK  147  A    between atoms: _373  and  _374
REMARK  148  A    between atoms: _384  and  _386
REMARK  149  A    between atoms: _386  and  _387
REMARK  150  A    between atoms: _386  and  _389
REMARK  151  A    between atoms: _389  and  _390
REMARK  152  A    between atoms: _395  and  _397
REMARK  153  A    between atoms: _397  and  _398
REMARK  154  A    between atoms: _397  and  _400
REMARK  155  A    between atoms: _400  and  _401
REMARK  156  A    between atoms: _404  and  _406
REMARK  157  A    between atoms: _406  and  _407
REMARK  158  A    between atoms: _406  and  _409
REMARK  159  A    between atoms: _409  and  _410
REMARK  160  A    between atoms: _416  and  _418
REMARK  161  A    between atoms: _418  and  _419
REMARK  162  A    between atoms: _418  and  _421
REMARK  163  A    between atoms: _421  and  _422
REMARK  164  A    between atoms: _425  and  _427
REMARK  165  A    between atoms: _427  and  _428
REMARK  166  A    between atoms: _427  and  _430
REMARK  167  A    between atoms: _430  and  _431
REMARK  168  A    between atoms: _433  and  _435
REMARK  169  A    between atoms: _435  and  _436
REMARK  170  A    between atoms: _435  and  _438
REMARK  171  A    between atoms: _438  and  _439
REMARK  172  A    between atoms: _442  and  _444
REMARK  173  A    between atoms: _444  and  _445
REMARK  174  A    between atoms: _444  and  _447
REMARK  175  A    between atoms: _447  and  _448
REMARK  176  A    between atoms: _454  and  _456
REMARK  177  A    between atoms: _456  and  _457
REMARK  178  A    between atoms: _456  and  _459
REMARK  179  A    between atoms: _459  and  _460
REMARK  180  A    between atoms: _460  and  _461
REMARK  181  A    between atoms: _461  and  _462
REMARK  182  A    between atoms: _471  and  _473
REMARK  183  A    between atoms: _473  and  _474
REMARK  184  A    between atoms: _473  and  _476
REMARK  185  A    between atoms: _476  and  _477
REMARK  186  A    between atoms: _483  and  _485
REMARK  187  A    between atoms: _485  and  _486
REMARK  188  A    between atoms: _485  and  _488
REMARK  189  A    between atoms: _488  and  _489
REMARK  190  A    between atoms: _491  and  _493
REMARK  191  A    between atoms: _493  and  _494
REMARK  192  A    between atoms: _493  and  _496
REMARK  193  A    between atoms: _496  and  _497
REMARK  194  A    between atoms: _502  and  _504
REMARK  195  A    between atoms: _504  and  _505
REMARK  196  A    between atoms: _504  and  _507
REMARK  197  A    between atoms: _507  and  _508
REMARK  198  A    between atoms: _508  and  _509
REMARK  199  A    between atoms: _512  and  _514
REMARK  200  A    between atoms: _514  and  _515
REMARK  201  A    between atoms: _517  and  _519
REMARK  202  A    between atoms: _519  and  _520
REMARK  203  A    between atoms: _519  and  _522
REMARK  204  A    between atoms: _522  and  _523
REMARK  205  A    between atoms: _525  and  _527
REMARK  206  A    between atoms: _527  and  _528
REMARK  207  A    between atoms: _527  and  _530
REMARK  208  A    between atoms: _530  and  _531
REMARK  209  A    between atoms: _537  and  _539
REMARK  210  A    between atoms: _539  and  _540
REMARK  211  A    between atoms: _539  and  _542
REMARK  212  A    between atoms: _542  and  _543
REMARK  213  A    between atoms: _549  and  _551
REMARK  214  A    between atoms: _551  and  _552
REMARK  215  A    between atoms: _551  and  _554
REMARK  216  A    between atoms: _554  and  _555
REMARK  217  A    between atoms: _558  and  _560
REMARK  218  A    between atoms: _560  and  _561
REMARK  219  A    between atoms: _560  and  _563
REMARK  220  A    between atoms: _563  and  _564
REMARK  221  A    between atoms: _567  and  _569
REMARK  222  A    between atoms: _569  and  _570
REMARK  223  A    between atoms: _569  and  _572
REMARK  224  A    between atoms: _572  and  _573
REMARK  225  A    between atoms: _578  and  _579
REMARK  226  A    between atoms: _581  and  _583
REMARK  227  A    between atoms: _583  and  _584
REMARK  228  A    between atoms: _586  and  _588
REMARK  229  A    between atoms: _588  and  _589
REMARK  230  A    between atoms: _592  and  _594
REMARK  231  A    between atoms: _594  and  _595
REMARK  232  A    between atoms: _594  and  _597
REMARK  233  A    between atoms: _597  and  _598
REMARK  234  A    between atoms: _601  and  _603
REMARK  235  A    between atoms: _603  and  _604
REMARK  236  A    between atoms: _603  and  _606
REMARK  237  A    between atoms: _606  and  _607
REMARK  238  A    between atoms: _609  and  _611
REMARK  239  A    between atoms: _611  and  _612
REMARK  240  A    between atoms: _611  and  _614
REMARK  241  A    between atoms: _617  and  _619
REMARK  242  A    between atoms: _619  and  _620
REMARK  243  A    between atoms: _619  and  _622
REMARK  244  A    between atoms: _622  and  _623
REMARK  245  A    between atoms: _628  and  _630
REMARK  246  A    between atoms: _630  and  _631
REMARK  247  A    between atoms: _630  and  _633
REMARK  248  A    between atoms: _633  and  _634
REMARK  249  A    between atoms: _644  and  _646
REMARK  250  A    between atoms: _646  and  _647
REMARK  251  A    between atoms: _646  and  _649
REMARK  252  A    between atoms: _649  and  _650
REMARK  253  A    between atoms: _650  and  _651
REMARK  254  A    between atoms: _653  and  _655
REMARK  255  A    between atoms: _655  and  _656
REMARK  256  A    between atoms: _655  and  _658
REMARK  257  A    between atoms: _658  and  _659
REMARK  258  A    between atoms: _662  and  _664
REMARK  259  A    between atoms: _664  and  _665
REMARK  260  A    between atoms: _664  and  _667
REMARK  261  A    between atoms: _667  and  _668
REMARK  262  A    between atoms: _673  and  _675
REMARK  263  A    between atoms: _675  and  _676
REMARK  264  A    between atoms: _678  and  _680
REMARK  265  A    between atoms: _680  and  _681
REMARK  266  A    between atoms: _680  and  _683
REMARK  267  A    between atoms: _683  and  _684
REMARK  268  A    between atoms: _689  and  _690
REMARK  269  A    between atoms: _692  and  _694
REMARK  270  A    between atoms: _694  and  _695
REMARK  271  A    between atoms: _694  and  _697
REMARK  272  A    between atoms: _697  and  _698
REMARK  273  A    between atoms: _698  and  _699
REMARK  274  A    between atoms: _702  and  _704
REMARK  275  A    between atoms: _704  and  _705
REMARK  276  A    between atoms: _704  and  _707
REMARK  277  A    between atoms: _707  and  _708
REMARK                            x       y       z     vdW  Elec       q    Type
REMARK                         _______ _______ _______ _____ _____    ______ ____
ROOT
ATOM      1  CG  TYR A   1      -4.413  62.901  53.764  0.00  0.00    -0.020 A 
ATOM      2  CD2 TYR A   1      -4.121  61.917  54.746  0.00  0.00    -0.001 A 
ATOM      3  CE2 TYR A   1      -2.956  61.992  55.521  0.00  0.00    +0.036 A 
ATOM      4  CZ  TYR A   1      -2.049  63.069  55.347  0.00  0.00    +0.134 A 
ATOM      5  CE1 TYR A   1      -2.314  64.053  54.387  0.00  0.00    +0.036 A 
ATOM      6  CD1 TYR A   1      -3.498  63.958  53.594  0.00  0.00    -0.001 A 
ENDROOT
BRANCH   4   7
ATOM      7  OH  TYR A   1      -0.905  63.148  56.159  0.00  0.00    -0.506 OA
ATOM      8  HH  TYR A   1      -0.381  63.951  55.912  0.00  0.00    +0.292 HD
ENDBRANCH   4   7
BRANCH   1   9
ATOM      9  CB  TYR A   1      -5.692  62.808  52.910  0.00  0.00    +0.051 C 
BRANCH   9  10
ATOM     10  CA  TYR A   1      -6.917  63.601  53.429  0.00  0.00    +0.137 C 
BRANCH  10  11
ATOM     11  N   TYR A   1      -6.624  65.021  53.496  0.00  0.00    -0.239 NA
ATOM     12  H   TYR A   1      -6.487  65.456  54.431  0.00  0.00    +0.142 HD
ENDBRANCH  10  11
BRANCH  10  13
ATOM     13  C   TYR A   1      -7.315  63.124  54.843  0.00  0.00    +0.224 C 
ATOM     14  O   TYR A   1      -6.875  63.700  55.894  0.00  0.00    -0.287 OA
ENDBRANCH  10  13
ENDBRANCH   9  10
ENDBRANCH   1   9
TORSDOF 5
REMARK  Name = ../refined-set-2016/1h22/1h22_pocket.pdb
REMARK  277 active torsions:
REMARK  status: ('A' for Active; 'I' for Inactive)
REMARK    1  A    between atoms: _1  and  _3
REMARK    2  A    between atoms: _3  and  _4
REMARK    3  A    between atoms: _3  and  _6
REMARK    4  A    between atoms: _6  and  _7
REMARK    5  A    between atoms: _7  and  _8
REMARK    6  A    between atoms: _13  and  _15
REMARK    7  A    between atoms: _15  and  _16
REMARK    8  A    between atoms: _15  and  _18
REMARK    9  A    between atoms: _18  and  _19
REMARK   10  A    between atoms: _24  and  _25
REMARK   11  A    between atoms: _27  and  _29
REMARK   12  A    between atoms: _29  and  _30
REMARK   13  A    between atoms: _29  and  _32
REMARK   14  A    between atoms: _35  and  _37
REMARK   15  A    between atoms: _37  and  _38
REMARK   16  A    between atoms: _37  and  _40
REMARK   17  A    between atoms: _40  and  _41
REMARK   18  A    between atoms: _44  and  _46
REMARK   19  A    between atoms: _46  and  _47
REMARK   20  A    between atoms: _46  and  _49
REMARK   21  A    between atoms: _49  and  _50
REMARK   22  A    between atoms: _50  and  _51
REMARK   23  A    between atoms: _54  and  _56
REMARK   24  A    between atoms: _56  and  _57
REMARK   25  A    between atoms: _56  and  _59
REMARK   26  A    between atoms: _59  and  _60
REMARK   27  A    between atoms: _60  and  _61
REMARK   28  A    between atoms: _66  and  _68
REMARK   29  A    between atoms: _68  and  _69
REMARK   30  A    between atoms: _68  and  _71
REMARK   31  A    between atoms: _71  and  _72
REMARK   32  A    between atoms: _78  and  _80
REMARK   33  A    between atoms: _80  and  _81
REMARK   34  A    between atoms: _83  and  _85
REMARK   35  A    between atoms: _85  and  _86
REMARK   36  A    between atoms: _85  and  _88
REMARK   37  A    between atoms: _88  and  _89
REMARK   38  A    between atoms: _91  and  _93
REMARK   39  A    between atoms: _93  and  _94
REMARK   40  A    between atoms: _93  and  _96
REMARK   41  A    between atoms: _96  and  _97
REMARK   42  A    between atoms: _97  and  _98
REMARK   43  A    between atoms: _100  and  _102
REMARK   44  A    between atoms: _102  and  _103
REMARK   45  A    between atoms: _102  and  _105
REMARK   46  A    between atoms: _105  and  _106
REMARK   47  A    between atoms: _116  and  _118
REMARK   48  A    between atoms: _118  and  _119
REMARK   49  A    between atoms: _118  and  _121
REMARK   50  A    between atoms: _121  and  _122
REMARK   51  A    between atoms: _128  and  _129
REMARK   52  A    between atoms: _134  and  _136
REMARK   53  A    between atoms: _136  and  _137
REMARK   54  A    between atoms: _136  and  _139
REMARK   55  A    between atoms: _139  and  _140
REMARK   56  A    between atoms: _150  and  _152
REMARK   57  A    between atoms: _152  and  _153
REMARK   58  A    between atoms: _152  and  _155
REMARK   59  A    between atoms: _155  and  _156
REMARK   60  A    between atoms: _159  and  _161
REMARK   61  A    between atoms: _161  and  _162
REMARK   62  A    between atoms: _161  and  _164
REMARK   63  A    between atoms: _164  and  _165
REMARK   64  A    between atoms: _170  and  _171
REMARK   65  A    between atoms: _173  and  _175
REMARK   66  A    between atoms: _175  and  _176
REMARK   67  A    between atoms: _178  and  _180
REMARK   68  A    between atoms: _180  and  _181
REMARK   69  A    between atoms: _183  and  _185
REMARK   70  A    between atoms: _185  and  _186
REMARK   71  A    between atoms: _188  and  _190
REMARK   72  A    between atoms: _190  and  _191
REMARK   73  A    between atoms: _190  and  _193
REMARK   74  A    between atoms: _193  and  _194
REMARK   75  A    between atoms: _200  and  _202
REMARK   76  A    between atoms: _202  and  _203
REMARK   77  A    between atoms: _202  and  _205
REMARK   78  A    between atoms: _205  and  _206
REMARK   79  A    between atoms: _211  and  _212
REMARK   80  A    between atoms: _214  and  _216
REMARK   81  A    between atoms: _216  and  _217
REMARK   82  A    between atoms: _216  and  _219
REMARK   83  A    between atoms: _219  and  _220
REMARK   84  A    between atoms: _222  and  _224
REMARK   85  A    between atoms: _224  and  _225
REMARK   86  A    between atoms: _227  and  _229
REMARK   87  A    between atoms: _229  and  _230
REMARK   88  A    between atoms: _229  and  _232
REMARK   89  A    between atoms: _232  and  _233
REMARK   90  A    between atoms: _235  and  _237
REMARK   91  A    between atoms: _237  and  _238
REMARK   92  A    between atoms: _237  and  _240
REMARK   93  A    between atoms: _240  and  _241
REMARK   94  A    between atoms: _243  and  _245
REMARK   95  A    between atoms: _245  and  _246
REMARK   96  A    between atoms: _245  and  _248
REMARK   97  A    between atoms: _248  and  _249
REMARK   98  A    between atoms: _252  and  _254
REMARK   99  A    between atoms: _254  and  _255
REMARK  100  A    between atoms: _254  and  _257
REMARK  101  A    between atoms: _257  and  _258
REMARK  102  A    between atoms: _261  and  _263
REMARK  103  A    between atoms: _263  and  _264
REMARK  104  A    between atoms: _263  and  _266
REMARK  105  A    between atoms: _269  and  _271
REMARK  106  A    between atoms: _271  and  _272
REMARK  107  A    between atoms: _271  and  _274
REMARK  108  A    between atoms: _274  and  _275
REMARK  109  A    between atoms: _280  and  _281
REMARK  110  A    between atoms: _283  and  _285
REMARK  111  A    between atoms: _285  and  _286
REMARK  112  A    between atoms: _285  and  _288
REMARK  113  A    between atoms: _288  and  _289
REMARK  114  A    between atoms: _294  and  _295
REMARK  115  A    between atoms: _297  and  _299
REMARK  116  A    between atoms: _299  and  _300
REMARK  117  A    between atoms: _299  and  _302
REMARK  118  A    between atoms: _305  and  _307
REMARK  119  A    between atoms: _307  and  _308
REMARK  120  A    between atoms: _307  and  _310
REMARK  121  A    between atoms: _310  and  _311
REMARK  122  A    between atoms: _311  and  _312
REMARK  123  A    between atoms: _315  and  _317
REMARK  124  A    between atoms: _317  and  _318
REMARK  125  A    between atoms: _317  and  _320
REMARK  126  A    between atoms: _320  and  _321
REMARK  127  A    between atoms: _323  and  _325
REMARK  128  A    between atoms: _325  and  _326
REMARK  129  A    between atoms: _329  and  _331
REMARK  130  A    between atoms: _331  and  _332
REMARK  131  A    between atoms: _334  and  _336
REMARK  132  A    between atoms: _336  and  _337
REMARK  133  A    between atoms: _336  and  _339
REMARK  134  A    between atoms: _339  and  _340
REMARK  135  A    between atoms: _342  and  _344
REMARK  136  A    between atoms: _344  and  _345
REMARK  137  A    between atoms: _344  and  _347
REMARK  138  A    between atoms: _347  and  _348
REMARK  139  A    between atoms: _358  and  _360
REMARK  140  A    between atoms: _360  and  _361
REMARK  141  A    between atoms: _360  and  _363
REMARK  142  A    between atoms: _363  and  _364
REMARK  143  A    between atoms: _364  and  _365
REMARK  144  A    between atoms: _368  and  _370
REMARK  145  A    between atoms: _370  and  _371
REMARK  146  A    between atoms: _370  and  _373
REMARK  147  A    between atoms: _373  and  _374
REMARK  148  A    between atoms: _384  and  _386
REMARK  149  A    between atoms: _386  and  _387
REMARK  150  A    between atoms: _386  and  _389
REMARK  151  A    between atoms: _389  and  _390
REMARK  152  A    between atoms: _395  and  _397
REMARK  153  A    between atoms: _397  and  _398
REMARK  154  A    between atoms: _397  and  _400
REMARK  155  A    between atoms: _400  and  _401
REMARK  156  A    between atoms: _404  and  _406
REMARK  157  A    between atoms: _406  and  _407
REMARK  158  A    between atoms: _406  and  _409
REMARK  159  A    between atoms: _409  and  _410
REMARK  160  A    between atoms: _416  and  _418
REMARK  161  A    between atoms: _418  and  _419
REMARK  162  A    between atoms: _418  and  _421
REMARK  163  A    between atoms: _421  and  _422
REMARK  164  A    between atoms: _425  and  _427
REMARK  165  A    between atoms: _427  and  _428
REMARK  166  A    between atoms: _427  and  _430
REMARK  167  A    between atoms: _430  and  _431
REMARK  168  A    between atoms: _433  and  _435
REMARK  169  A    between atoms: _435  and  _436
REMARK  170  A    between atoms: _435  and  _438
REMARK  171  A    between atoms: _438  and  _439
REMARK  172  A    between atoms: _442  and  _444
REMARK  173  A    between atoms: _444  and  _445
REMARK  174  A    between atoms: _444  and  _447
REMARK  175  A    between atoms: _447  and  _448
REMARK  176  A    between atoms: _454  and  _456
REMARK  177  A    between atoms: _456  and  _457
REMARK  178  A    between atoms: _456  and  _459
REMARK  179  A    between atoms: _459  and  _460
REMARK  180  A    between atoms: _460  and  _461
REMARK  181  A    between atoms: _461  and  _462
REMARK  182  A    between atoms: _471  and  _473
REMARK  183  A    between atoms: _473  and  _474
REMARK  184  A    between atoms: _473  and  _476
REMARK  185  A    between atoms: _476  and  _477
REMARK  186  A    between atoms: _483  and  _485
REMARK  187  A    between atoms: _485  and  _486
REMARK  188  A    between atoms: _485  and  _488
REMARK  189  A    between atoms: _488  and  _489
REMARK  190  A    between atoms: _491  and  _493
REMARK  191  A    between atoms: _493  and  _494
REMARK  192  A    between atoms: _493  and  _496
REMARK  193  A    between atoms: _496  and  _497
REMARK  194  A    between atoms: _502  and  _504
REMARK  195  A    between atoms: _504  and  _505
REMARK  196  A    between atoms: _504  and  _507
REMARK  197  A    between atoms: _507  and  _508
REMARK  198  A    between atoms: _508  and  _509
REMARK  199  A    between atoms: _512  and  _514
REMARK  200  A    between atoms: _514  and  _515
REMARK  201  A    between atoms: _517  and  _519
REMARK  202  A    between atoms: _519  and  _520
REMARK  203  A    between atoms: _519  and  _522
REMARK  204  A    between atoms: _522  and  _523
REMARK  205  A    between atoms: _525  and  _527
REMARK  206  A    between atoms: _527  and  _528
REMARK  207  A    between atoms: _527  and  _530
REMARK  208  A    between atoms: _530  and  _531
REMARK  209  A    between atoms: _537  and  _539
REMARK  210  A    between atoms: _539  and  _540
REMARK  211  A    between atoms: _539  and  _542
REMARK  212  A    between atoms: _542  and  _543
REMARK  213  A    between atoms: _549  and  _551
REMARK  214  A    between atoms: _551  and  _552
REMARK  215  A    between atoms: _551  and  _554
REMARK  216  A    between atoms: _554  and  _555
REMARK  217  A    between atoms: _558  and  _560
REMARK  218  A    between atoms: _560  and  _561
REMARK  219  A    between atoms: _560  and  _563
REMARK  220  A    between atoms: _563  and  _564
REMARK  221  A    between atoms: _567  and  _569
REMARK  222  A    between atoms: _569  and  _570
REMARK  223  A    between atoms: _569  and  _572
REMARK  224  A    between atoms: _572  and  _573
REMARK  225  A    between atoms: _578  and  _579
REMARK  226  A    between atoms: _581  and  _583
REMARK  227  A    between atoms: _583  and  _584
REMARK  228  A    between atoms: _586  and  _588
REMARK  229  A    between atoms: _588  and  _589
REMARK  230  A    between atoms: _592  and  _594
REMARK  231  A    between atoms: _594  and  _595
REMARK  232  A    between atoms: _594  and  _597
REMARK  233  A    between atoms: _597  and  _598
REMARK  234  A    between atoms: _601  and  _603
REMARK  235  A    between atoms: _603  and  _604
REMARK  236  A    between atoms: _603  and  _606
REMARK  237  A    between atoms: _606  and  _607
REMARK  238  A    between atoms: _609  and  _611
REMARK  239  A    between atoms: _611  and  _612
REMARK  240  A    between atoms: _611  and  _614
REMARK  241  A    between atoms: _617  and  _619
REMARK  242  A    between atoms: _619  and  _620
REMARK  243  A    between atoms: _619  and  _622
REMARK  244  A    between atoms: _622  and  _623
REMARK  245  A    between atoms: _628  and  _630
REMARK  246  A    between atoms: _630  and  _631
REMARK  247  A    between atoms: _630  and  _633
REMARK  248  A    between atoms: _633  and  _634
REMARK  249  A    between atoms: _644  and  _646
REMARK  250  A    between atoms: _646  and  _647
REMARK  251  A    between atoms: _646  and  _649
REMARK  252  A    between atoms: _649  and  _650
REMARK  253  A    between atoms: _650  and  _651
REMARK  254  A    between atoms: _653  and  _655
REMARK  255  A    between atoms: _655  and  _656
REMARK  256  A    between atoms: _655  and  _658
REMARK  257  A    between atoms: _658  and  _659
REMARK  258  A    between atoms: _662  and  _664
REMARK  259  A    between atoms: _664  and  _665
REMARK  260  A    between atoms: _664  and  _667
REMARK  261  A    between atoms: _667  and  _668
REMARK  262  A    between atoms: _673  and  _675
REMARK  263  A    between atoms: _675  and  _676
REMARK  264  A    between atoms: _678  and  _680
REMARK  265  A    between atoms: _680  and  _681
REMARK  266  A    between atoms: _680  and  _683
REMARK  267  A    between atoms: _683  and  _684
REMARK  268  A    between atoms: _689  and  _690
REMARK  269  A    between atoms: _692  and  _694
REMARK  270  A    between atoms: _694  and  _695
REMARK  271  A    between atoms: _694  and  _697
REMARK  272  A    between atoms: _697  and  _698
REMARK  273  A    between atoms: _698  and  _699
REMARK  274  A    between atoms: _702  and  _704
REMARK  275  A    between atoms: _704  and  _705
REMARK  276  A    between atoms: _704  and  _707
REMARK  277  A    between atoms: _707  and  _708
REMARK                            x       y       z     vdW  Elec       q    Type
REMARK                         _______ _______ _______ _____ _____    ______ ____
ROOT
ATOM      1  CA  VAL A   1      -6.257  60.764  59.130  0.00  0.00    +0.133 C 
ENDROOT
BRANCH   1   2
ATOM      2  CB  VAL A   1      -5.473  61.936  59.795  0.00  0.00    +0.023 C 
ATOM      3  CG2 VAL A   1      -6.418  62.846  60.561  0.00  0.00    +0.002 C 
ATOM      4  CG1 VAL A   1      -4.702  62.733  58.703  0.00  0.00    +0.002 C 
ENDBRANCH   1   2
BRANCH   1   5
ATOM      5  N   VAL A   1      -7.333  61.269  58.271  0.00  0.00    -0.239 NA
ATOM      6  H   VAL A   1      -8.090  61.850  58.686  0.00  0.00    +0.142 HD
ENDBRANCH   1   5
BRANCH   1   7
ATOM      7  C   VAL A   1      -6.846  59.842  60.218  0.00  0.00    +0.224 C 
ATOM      8  O   VAL A   1      -8.087  59.681  60.314  0.00  0.00    -0.287 OA
ENDBRANCH   1   7
TORSDOF 3
REMARK  Name = ../refined-set-2016/1h22/1h22_pocket.pdb
REMARK  277 active torsions:
REMARK  status: ('A' for Active; 'I' for Inactive)
REMARK    1  A    between atoms: _1  and  _3
REMARK    2  A    between atoms: _3  and  _4
REMARK    3  A    between atoms: _3  and  _6
REMARK    4  A    between atoms: _6  and  _7
REMARK    5  A    between atoms: _7  and  _8
REMARK    6  A    between atoms: _13  and  _15
REMARK    7  A    between atoms: _15  and  _16
REMARK    8  A    between atoms: _15  and  _18
REMARK    9  A    between atoms: _18  and  _19
REMARK   10  A    between atoms: _24  and  _25
REMARK   11  A    between atoms: _27  and  _29
REMARK   12  A    between atoms: _29  and  _30
REMARK   13  A    between atoms: _29  and  _32
REMARK   14  A    between atoms: _35  and  _37
REMARK   15  A    between atoms: _37  and  _38
REMARK   16  A    between atoms: _37  and  _40
REMARK   17  A    between atoms: _40  and  _41
REMARK   18  A    between atoms: _44  and  _46
REMARK   19  A    between atoms: _46  and  _47
REMARK   20  A    between atoms: _46  and  _49
REMARK   21  A    between atoms: _49  and  _50
REMARK   22  A    between atoms: _50  and  _51
REMARK   23  A    between atoms: _54  and  _56
REMARK   24  A    between atoms: _56  and  _57
REMARK   25  A    between atoms: _56  and  _59
REMARK   26  A    between atoms: _59  and  _60
REMARK   27  A    between atoms: _60  and  _61
REMARK   28  A    between atoms: _66  and  _68
REMARK   29  A    between atoms: _68  and  _69
REMARK   30  A    between atoms: _68  and  _71
REMARK   31  A    between atoms: _71  and  _72
REMARK   32  A    between atoms: _78  and  _80
REMARK   33  A    between atoms: _80  and  _81
REMARK   34  A    between atoms: _83  and  _85
REMARK   35  A    between atoms: _85  and  _86
REMARK   36  A    between atoms: _85  and  _88
REMARK   37  A    between atoms: _88  and  _89
REMARK   38  A    between atoms: _91  and  _93
REMARK   39  A    between atoms: _93  and  _94
REMARK   40  A    between atoms: _93  and  _96
REMARK   41  A    between atoms: _96  and  _97
REMARK   42  A    between atoms: _97  and  _98
REMARK   43  A    between atoms: _100  and  _102
REMARK   44  A    between atoms: _102  and  _103
REMARK   45  A    between atoms: _102  and  _105
REMARK   46  A    between atoms: _105  and  _106
REMARK   47  A    between atoms: _116  and  _118
REMARK   48  A    between atoms: _118  and  _119
REMARK   49  A    between atoms: _118  and  _121
REMARK   50  A    between atoms: _121  and  _122
REMARK   51  A    between atoms: _128  and  _129
REMARK   52  A    between atoms: _134  and  _136
REMARK   53  A    between atoms: _136  and  _137
REMARK   54  A    between atoms: _136  and  _139
REMARK   55  A    between atoms: _139  and  _140
REMARK   56  A    between atoms: _150  and  _152
REMARK   57  A    between atoms: _152  and  _153
REMARK   58  A    between atoms: _152  and  _155
REMARK   59  A    between atoms: _155  and  _156
REMARK   60  A    between atoms: _159  and  _161
REMARK   61  A    between atoms: _161  and  _162
REMARK   62  A    between atoms: _161  and  _164
REMARK   63  A    between atoms: _164  and  _165
REMARK   64  A    between atoms: _170  and  _171
REMARK   65  A    between atoms: _173  and  _175
REMARK   66  A    between atoms: _175  and  _176
REMARK   67  A    between atoms: _178  and  _180
REMARK   68  A    between atoms: _180  and  _181
REMARK   69  A    between atoms: _183  and  _185
REMARK   70  A    between atoms: _185  and  _186
REMARK   71  A    between atoms: _188  and  _190
REMARK   72  A    between atoms: _190  and  _191
REMARK   73  A    between atoms: _190  and  _193
REMARK   74  A    between atoms: _193  and  _194
REMARK   75  A    between atoms: _200  and  _202
REMARK   76  A    between atoms: _202  and  _203
REMARK   77  A    between atoms: _202  and  _205
REMARK   78  A    between atoms: _205  and  _206
REMARK   79  A    between atoms: _211  and  _212
REMARK   80  A    between atoms: _214  and  _216
REMARK   81  A    between atoms: _216  and  _217
REMARK   82  A    between atoms: _216  and  _219
REMARK   83  A    between atoms: _219  and  _220
REMARK   84  A    between atoms: _222  and  _224
REMARK   85  A    between atoms: _224  and  _225
REMARK   86  A    between atoms: _227  and  _229
REMARK   87  A    between atoms: _229  and  _230
REMARK   88  A    between atoms: _229  and  _232
REMARK   89  A    between atoms: _232  and  _233
REMARK   90  A    between atoms: _235  and  _237
REMARK   91  A    between atoms: _237  and  _238
REMARK   92  A    between atoms: _237  and  _240
REMARK   93  A    between atoms: _240  and  _241
REMARK   94  A    between atoms: _243  and  _245
REMARK   95  A    between atoms: _245  and  _246
REMARK   96  A    between atoms: _245  and  _248
REMARK   97  A    between atoms: _248  and  _249
REMARK   98  A    between atoms: _252  and  _254
REMARK   99  A    between atoms: _254  and  _255
REMARK  100  A    between atoms: _254  and  _257
REMARK  101  A    between atoms: _257  and  _258
REMARK  102  A    between atoms: _261  and  _263
REMARK  103  A    between atoms: _263  and  _264
REMARK  104  A    between atoms: _263  and  _266
REMARK  105  A    between atoms: _269  and  _271
REMARK  106  A    between atoms: _271  and  _272
REMARK  107  A    between atoms: _271  and  _274
REMARK  108  A    between atoms: _274  and  _275
REMARK  109  A    between atoms: _280  and  _281
REMARK  110  A    between atoms: _283  and  _285
REMARK  111  A    between atoms: _285  and  _286
REMARK  112  A    between atoms: _285  and  _288
REMARK  113  A    between atoms: _288  and  _289
REMARK  114  A    between atoms: _294  and  _295
REMARK  115  A    between atoms: _297  and  _299
REMARK  116  A    between atoms: _299  and  _300
REMARK  117  A    between atoms: _299  and  _302
REMARK  118  A    between atoms: _305  and  _307
REMARK  119  A    between atoms: _307  and  _308
REMARK  120  A    between atoms: _307  and  _310
REMARK  121  A    between atoms: _310  and  _311
REMARK  122  A    between atoms: _311  and  _312
REMARK  123  A    between atoms: _315  and  _317
REMARK  124  A    between atoms: _317  and  _318
REMARK  125  A    between atoms: _317  and  _320
REMARK  126  A    between atoms: _320  and  _321
REMARK  127  A    between atoms: _323  and  _325
REMARK  128  A    between atoms: _325  and  _326
REMARK  129  A    between atoms: _329  and  _331
REMARK  130  A    between atoms: _331  and  _332
REMARK  131  A    between atoms: _334  and  _336
REMARK  132  A    between atoms: _336  and  _337
REMARK  133  A    between atoms: _336  and  _339
REMARK  134  A    between atoms: _339  and  _340
REMARK  135  A    between atoms: _342  and  _344
REMARK  136  A    between atoms: _344  and  _345
REMARK  137  A    between atoms: _344  and  _347
REMARK  138  A    between atoms: _347  and  _348
REMARK  139  A    between atoms: _358  and  _360
REMARK  140  A    between atoms: _360  and  _361
REMARK  141  A    between atoms: _360  and  _363
REMARK  142  A    between atoms: _363  and  _364
REMARK  143  A    between atoms: _364  and  _365
REMARK  144  A    between atoms: _368  and  _370
REMARK  145  A    between atoms: _370  and  _371
REMARK  146  A    between atoms: _370  and  _373
REMARK  147  A    between atoms: _373  and  _374
REMARK  148  A    between atoms: _384  and  _386
REMARK  149  A    between atoms: _386  and  _387
REMARK  150  A    between atoms: _386  and  _389
REMARK  151  A    between atoms: _389  and  _390
REMARK  152  A    between atoms: _395  and  _397
REMARK  153  A    between atoms: _397  and  _398
REMARK  154  A    between atoms: _397  and  _400
REMARK  155  A    between atoms: _400  and  _401
REMARK  156  A    between atoms: _404  and  _406
REMARK  157  A    between atoms: _406  and  _407
REMARK  158  A    between atoms: _406  and  _409
REMARK  159  A    between atoms: _409  and  _410
REMARK  160  A    between atoms: _416  and  _418
REMARK  161  A    between atoms: _418  and  _419
REMARK  162  A    between atoms: _418  and  _421
REMARK  163  A    between atoms: _421  and  _422
REMARK  164  A    between atoms: _425  and  _427
REMARK  165  A    between atoms: _427  and  _428
REMARK  166  A    between atoms: _427  and  _430
REMARK  167  A    between atoms: _430  and  _431
REMARK  168  A    between atoms: _433  and  _435
REMARK  169  A    between atoms: _435  and  _436
REMARK  170  A    between atoms: _435  and  _438
REMARK  171  A    between atoms: _438  and  _439
REMARK  172  A    between atoms: _442  and  _444
REMARK  173  A    between atoms: _444  and  _445
REMARK  174  A    between atoms: _444  and  _447
REMARK  175  A    between atoms: _447  and  _448
REMARK  176  A    between atoms: _454  and  _456
REMARK  177  A    between atoms: _456  and  _457
REMARK  178  A    between atoms: _456  and  _459
REMARK  179  A    between atoms: _459  and  _460
REMARK  180  A    between atoms: _460  and  _461
REMARK  181  A    between atoms: _461  and  _462
REMARK  182  A    between atoms: _471  and  _473
REMARK  183  A    between atoms: _473  and  _474
REMARK  184  A    between atoms: _473  and  _476
REMARK  185  A    between atoms: _476  and  _477
REMARK  186  A    between atoms: _483  and  _485
REMARK  187  A    between atoms: _485  and  _486
REMARK  188  A    between atoms: _485  and  _488
REMARK  189  A    between atoms: _488  and  _489
REMARK  190  A    between atoms: _491  and  _493
REMARK  191  A    between atoms: _493  and  _494
REMARK  192  A    between atoms: _493  and  _496
REMARK  193  A    between atoms: _496  and  _497
REMARK  194  A    between atoms: _502  and  _504
REMARK  195  A    between atoms: _504  and  _505
REMARK  196  A    between atoms: _504  and  _507
REMARK  197  A    between atoms: _507  and  _508
REMARK  198  A    between atoms: _508  and  _509
REMARK  199  A    between atoms: _512  and  _514
REMARK  200  A    between atoms: _514  and  _515
REMARK  201  A    between atoms: _517  and  _519
REMARK  202  A    between atoms: _519  and  _520
REMARK  203  A    between atoms: _519  and  _522
REMARK  204  A    between atoms: _522  and  _523
REMARK  205  A    between atoms: _525  and  _527
REMARK  206  A    between atoms: _527  and  _528
REMARK  207  A    between atoms: _527  and  _530
REMARK  208  A    between atoms: _530  and  _531
REMARK  209  A    between atoms: _537  and  _539
REMARK  210  A    between atoms: _539  and  _540
REMARK  211  A    between atoms: _539  and  _542
REMARK  212  A    between atoms: _542  and  _543
REMARK  213  A    between atoms: _549  and  _551
REMARK  214  A    between atoms: _551  and  _552
REMARK  215  A    between atoms: _551  and  _554
REMARK  216  A    between atoms: _554  and  _555
REMARK  217  A    between atoms: _558  and  _560
REMARK  218  A    between atoms: _560  and  _561
REMARK  219  A    between atoms: _560  and  _563
REMARK  220  A    between atoms: _563  and  _564
REMARK  221  A    between atoms: _567  and  _569
REMARK  222  A    between atoms: _569  and  _570
REMARK  223  A    between atoms: _569  and  _572
REMARK  224  A    between atoms: _572  and  _573
REMARK  225  A    between atoms: _578  and  _579
REMARK  226  A    between atoms: _581  and  _583
REMARK  227  A    between atoms: _583  and  _584
REMARK  228  A    between atoms: _586  and  _588
REMARK  229  A    between atoms: _588  and  _589
REMARK  230  A    between atoms: _592  and  _594
REMARK  231  A    between atoms: _594  and  _595
REMARK  232  A    between atoms: _594  and  _597
REMARK  233  A    between atoms: _597  and  _598
REMARK  234  A    between atoms: _601  and  _603
REMARK  235  A    between atoms: _603  and  _604
REMARK  236  A    between atoms: _603  and  _606
REMARK  237  A    between atoms: _606  and  _607
REMARK  238  A    between atoms: _609  and  _611
REMARK  239  A    between atoms: _611  and  _612
REMARK  240  A    between atoms: _611  and  _614
REMARK  241  A    between atoms: _617  and  _619
REMARK  242  A    between atoms: _619  and  _620
REMARK  243  A    between atoms: _619  and  _622
REMARK  244  A    between atoms: _622  and  _623
REMARK  245  A    between atoms: _628  and  _630
REMARK  246  A    between atoms: _630  and  _631
REMARK  247  A    between atoms: _630  and  _633
REMARK  248  A    between atoms: _633  and  _634
REMARK  249  A    between atoms: _644  and  _646
REMARK  250  A    between atoms: _646  and  _647
REMARK  251  A    between atoms: _646  and  _649
REMARK  252  A    between atoms: _649  and  _650
REMARK  253  A    between atoms: _650  and  _651
REMARK  254  A    between atoms: _653  and  _655
REMARK  255  A    between atoms: _655  and  _656
REMARK  256  A    between atoms: _655  and  _658
REMARK  257  A    between atoms: _658  and  _659
REMARK  258  A    between atoms: _662  and  _664
REMARK  259  A    between atoms: _664  and  _665
REMARK  260  A    between atoms: _664  and  _667
REMARK  261  A    between atoms: _667  and  _668
REMARK  262  A    between atoms: _673  and  _675
REMARK  263  A    between atoms: _675  and  _676
REMARK  264  A    between atoms: _678  and  _680
REMARK  265  A    between atoms: _680  and  _681
REMARK  266  A    between atoms: _680  and  _683
REMARK  267  A    between atoms: _683  and  _684
REMARK  268  A    between atoms: _689  and  _690
REMARK  269  A    between atoms: _692  and  _694
REMARK  270  A    between atoms: _694  and  _695
REMARK  271  A    between atoms: _694  and  _697
REMARK  272  A    between atoms: _697  and  _698
REMARK  273  A    between atoms: _698  and  _699
REMARK  274  A    between atoms: _702  and  _704
REMARK  275  A    between atoms: _704  and  _705
REMARK  276  A    between atoms: _704  and  _707
REMARK  277  A    between atoms: _707  and  _708
REMARK                            x       y       z     vdW  Elec       q    Type
REMARK                         _______ _______ _______ _____ _____    ______ ____
ROOT
ATOM      1  CA  SER A   2       6.950  64.018  58.415  0.00  0.00    +0.178 C 
ENDROOT
BRANCH   1   3
ATOM      2  C   GLU A   1       6.420  65.786  56.798  0.00  0.00    +0.238 C 
ATOM      3  N   SER A   2       7.326  65.085  57.484  0.00  0.00    -0.295 N 
ATOM      4  H   SER A   2       8.334  65.304  57.353  0.00  0.00    +0.150 HD
ATOM      5  O   GLU A   1       5.217  65.594  56.886  0.00  0.00    -0.274 OA
BRANCH   2   6
ATOM      6  CA  GLU A   1       6.957  66.880  55.865  0.00  0.00    +0.145 C 
BRANCH   6   7
ATOM      7  N   GLU A   1       6.039  67.079  54.753  0.00  0.00    -0.238 NA
ATOM      8  H   GLU A   1       5.071  67.402  54.952  0.00  0.00    +0.142 HD
ENDBRANCH   6   7
BRANCH   6   9
ATOM      9  CB  GLU A   1       7.165  68.214  56.653  0.00  0.00    +0.038 C 
BRANCH   9  10
ATOM     10  CG  GLU A   1       8.186  68.127  57.806  0.00  0.00    +0.116 C 
BRANCH  10  11
ATOM     11  CD  GLU A   1       7.538  67.791  59.164  0.00  0.00    +0.365 C 
ATOM     12  OE2 GLU A   1       8.263  67.620  60.169  0.00  0.00    -0.246 OA
ATOM     13  OE1 GLU A   1       6.294  67.676  59.235  0.00  0.00    -0.246 OA
ENDBRANCH  10  11
ENDBRANCH   9  10
ENDBRANCH   6   9
ENDBRANCH   2   6
ENDBRANCH   1   3
BRANCH   1  14
ATOM     14  C   SER A   2       6.040  62.976  57.696  0.00  0.00    +0.243 C 
ATOM     15  N   ALA A   3       4.823  62.733  58.156  0.00  0.00    -0.297 N 
ATOM     16  H   ALA A   3       4.473  63.214  59.009  0.00  0.00    +0.150 HD
ATOM     17  O   SER A   2       6.456  62.396  56.709  0.00  0.00    -0.273 OA
BRANCH  15  18
ATOM     18  CA  ALA A   3       3.956  61.749  57.423  0.00  0.00    +0.149 C 
ATOM     19  CB  ALA A   3       2.635  61.530  58.198  0.00  0.00    +0.031 C 
BRANCH  18  20
ATOM     20  C   ALA A   3       3.660  62.179  55.960  0.00  0.00    +0.241 C 
ATOM     21  N   GLY A   4       3.703  63.496  55.712  0.00  0.00    -0.296 N 
ATOM     22  H   GLY A   4       3.866  64.160  56.496  0.00  0.00    +0.150 HD
ATOM     23  O   ALA A   3       3.373  61.341  55.077  0.00  0.00    -0.273 OA
BRANCH  21  24
ATOM     24  CA  GLY A   4       3.523  64.015  54.346  0.00  0.00    +0.163 C 
BRANCH  24  25
ATOM     25  C   GLY A   4       4.760  63.693  53.494  0.00  0.00    +0.229 C 
ATOM     26  O   GLY A   4       4.664  63.498  52.240  0.00  0.00    -0.286 OA
ENDBRANCH  24  25
ENDBRANCH  21  24
ENDBRANCH  18  20
ENDBRANCH  15  18
ENDBRANCH   1  14
BRANCH   1  27
ATOM     27  CB  SER A   2       6.260  64.628  59.634  0.00  0.00    +0.166 C 
BRANCH  27  28
ATOM     28  OG  SER A   2       6.099  63.628  60.636  0.00  0.00    -0.380 OA
ATOM     29  H   SER A   2       5.546  62.889  60.277  0.00  0.00    +0.211 HD
ENDBRANCH  27  28
ENDBRANCH   1  27
TORSDOF 13
REMARK  Name = ../refined-set-2016/1h22/1h22_pocket.pdb
REMARK  277 active torsions:
REMARK  status: ('A' for Active; 'I' for Inactive)
REMARK    1  A    between atoms: _1  and  _3
REMARK    2  A    between atoms: _3  and  _4
REMARK    3  A    between atoms: _3  and  _6
REMARK    4  A    between atoms: _6  and  _7
REMARK    5  A    between atoms: _7  and  _8
REMARK    6  A    between atoms: _13  and  _15
REMARK    7  A    between atoms: _15  and  _16
REMARK    8  A    between atoms: _15  and  _18
REMARK    9  A    between atoms: _18  and  _19
REMARK   10  A    between atoms: _24  and  _25
REMARK   11  A    between atoms: _27  and  _29
REMARK   12  A    between atoms: _29  and  _30
REMARK   13  A    between atoms: _29  and  _32
REMARK   14  A    between atoms: _35  and  _37
REMARK   15  A    between atoms: _37  and  _38
REMARK   16  A    between atoms: _37  and  _40
REMARK   17  A    between atoms: _40  and  _41
REMARK   18  A    between atoms: _44  and  _46
REMARK   19  A    between atoms: _46  and  _47
REMARK   20  A    between atoms: _46  and  _49
REMARK   21  A    between atoms: _49  and  _50
REMARK   22  A    between atoms: _50  and  _51
REMARK   23  A    between atoms: _54  and  _56
REMARK   24  A    between atoms: _56  and  _57
REMARK   25  A    between atoms: _56  and  _59
REMARK   26  A    between atoms: _59  and  _60
REMARK   27  A    between atoms: _60  and  _61
REMARK   28  A    between atoms: _66  and  _68
REMARK   29  A    between atoms: _68  and  _69
REMARK   30  A    between atoms: _68  and  _71
REMARK   31  A    between atoms: _71  and  _72
REMARK   32  A    between atoms: _78  and  _80
REMARK   33  A    between atoms: _80  and  _81
REMARK   34  A    between atoms: _83  and  _85
REMARK   35  A    between atoms: _85  and  _86
REMARK   36  A    between atoms: _85  and  _88
REMARK   37  A    between atoms: _88  and  _89
REMARK   38  A    between atoms: _91  and  _93
REMARK   39  A    between atoms: _93  and  _94
REMARK   40  A    between atoms: _93  and  _96
REMARK   41  A    between atoms: _96  and  _97
REMARK   42  A    between atoms: _97  and  _98
REMARK   43  A    between atoms: _100  and  _102
REMARK   44  A    between atoms: _102  and  _103
REMARK   45  A    between atoms: _102  and  _105
REMARK   46  A    between atoms: _105  and  _106
REMARK   47  A    between atoms: _116  and  _118
REMARK   48  A    between atoms: _118  and  _119
REMARK   49  A    between atoms: _118  and  _121
REMARK   50  A    between atoms: _121  and  _122
REMARK   51  A    between atoms: _128  and  _129
REMARK   52  A    between atoms: _134  and  _136
REMARK   53  A    between atoms: _136  and  _137
REMARK   54  A    between atoms: _136  and  _139
REMARK   55  A    between atoms: _139  and  _140
REMARK   56  A    between atoms: _150  and  _152
REMARK   57  A    between atoms: _152  and  _153
REMARK   58  A    between atoms: _152  and  _155
REMARK   59  A    between atoms: _155  and  _156
REMARK   60  A    between atoms: _159  and  _161
REMARK   61  A    between atoms: _161  and  _162
REMARK   62  A    between atoms: _161  and  _164
REMARK   63  A    between atoms: _164  and  _165
REMARK   64  A    between atoms: _170  and  _171
REMARK   65  A    between atoms: _173  and  _175
REMARK   66  A    between atoms: _175  and  _176
REMARK   67  A    between atoms: _178  and  _180
REMARK   68  A    between atoms: _180  and  _181
REMARK   69  A    between atoms: _183  and  _185
REMARK   70  A    between atoms: _185  and  _186
REMARK   71  A    between atoms: _188  and  _190
REMARK   72  A    between atoms: _190  and  _191
REMARK   73  A    between atoms: _190  and  _193
REMARK   74  A    between atoms: _193  and  _194
REMARK   75  A    between atoms: _200  and  _202
REMARK   76  A    between atoms: _202  and  _203
REMARK   77  A    between atoms: _202  and  _205
REMARK   78  A    between atoms: _205  and  _206
REMARK   79  A    between atoms: _211  and  _212
REMARK   80  A    between atoms: _214  and  _216
REMARK   81  A    between atoms: _216  and  _217
REMARK   82  A    between atoms: _216  and  _219
REMARK   83  A    between atoms: _219  and  _220
REMARK   84  A    between atoms: _222  and  _224
REMARK   85  A    between atoms: _224  and  _225
REMARK   86  A    between atoms: _227  and  _229
REMARK   87  A    between atoms: _229  and  _230
REMARK   88  A    between atoms: _229  and  _232
REMARK   89  A    between atoms: _232  and  _233
REMARK   90  A    between atoms: _235  and  _237
REMARK   91  A    between atoms: _237  and  _238
REMARK   92  A    between atoms: _237  and  _240
REMARK   93  A    between atoms: _240  and  _241
REMARK   94  A    between atoms: _243  and  _245
REMARK   95  A    between atoms: _245  and  _246
REMARK   96  A    between atoms: _245  and  _248
REMARK   97  A    between atoms: _248  and  _249
REMARK   98  A    between atoms: _252  and  _254
REMARK   99  A    between atoms: _254  and  _255
REMARK  100  A    between atoms: _254  and  _257
REMARK  101  A    between atoms: _257  and  _258
REMARK  102  A    between atoms: _261  and  _263
REMARK  103  A    between atoms: _263  and  _264
REMARK  104  A    between atoms: _263  and  _266
REMARK  105  A    between atoms: _269  and  _271
REMARK  106  A    between atoms: _271  and  _272
REMARK  107  A    between atoms: _271  and  _274
REMARK  108  A    between atoms: _274  and  _275
REMARK  109  A    between atoms: _280  and  _281
REMARK  110  A    between atoms: _283  and  _285
REMARK  111  A    between atoms: _285  and  _286
REMARK  112  A    between atoms: _285  and  _288
REMARK  113  A    between atoms: _288  and  _289
REMARK  114  A    between atoms: _294  and  _295
REMARK  115  A    between atoms: _297  and  _299
REMARK  116  A    between atoms: _299  and  _300
REMARK  117  A    between atoms: _299  and  _302
REMARK  118  A    between atoms: _305  and  _307
REMARK  119  A    between atoms: _307  and  _308
REMARK  120  A    between atoms: _307  and  _310
REMARK  121  A    between atoms: _310  and  _311
REMARK  122  A    between atoms: _311  and  _312
REMARK  123  A    between atoms: _315  and  _317
REMARK  124  A    between atoms: _317  and  _318
REMARK  125  A    between atoms: _317  and  _320
REMARK  126  A    between atoms: _320  and  _321
REMARK  127  A    between atoms: _323  and  _325
REMARK  128  A    between atoms: _325  and  _326
REMARK  129  A    between atoms: _329  and  _331
REMARK  130  A    between atoms: _331  and  _332
REMARK  131  A    between atoms: _334  and  _336
REMARK  132  A    between atoms: _336  and  _337
REMARK  133  A    between atoms: _336  and  _339
REMARK  134  A    between atoms: _339  and  _340
REMARK  135  A    between atoms: _342  and  _344
REMARK  136  A    between atoms: _344  and  _345
REMARK  137  A    between atoms: _344  and  _347
REMARK  138  A    between atoms: _347  and  _348
REMARK  139  A    between atoms: _358  and  _360
REMARK  140  A    between atoms: _360  and  _361
REMARK  141  A    between atoms: _360  and  _363
REMARK  142  A    between atoms: _363  and  _364
REMARK  143  A    between atoms: _364  and  _365
REMARK  144  A    between atoms: _368  and  _370
REMARK  145  A    between atoms: _370  and  _371
REMARK  146  A    between atoms: _370  and  _373
REMARK  147  A    between atoms: _373  and  _374
REMARK  148  A    between atoms: _384  and  _386
REMARK  149  A    between atoms: _386  and  _387
REMARK  150  A    between atoms: _386  and  _389
REMARK  151  A    between atoms: _389  and  _390
REMARK  152  A    between atoms: _395  and  _397
REMARK  153  A    between atoms: _397  and  _398
REMARK  154  A    between atoms: _397  and  _400
REMARK  155  A    between atoms: _400  and  _401
REMARK  156  A    between atoms: _404  and  _406
REMARK  157  A    between atoms: _406  and  _407
REMARK  158  A    between atoms: _406  and  _409
REMARK  159  A    between atoms: _409  and  _410
REMARK  160  A    between atoms: _416  and  _418
REMARK  161  A    between atoms: _418  and  _419
REMARK  162  A    between atoms: _418  and  _421
REMARK  163  A    between atoms: _421  and  _422
REMARK  164  A    between atoms: _425  and  _427
REMARK  165  A    between atoms: _427  and  _428
REMARK  166  A    between atoms: _427  and  _430
REMARK  167  A    between atoms: _430  and  _431
REMARK  168  A    between atoms: _433  and  _435
REMARK  169  A    between atoms: _435  and  _436
REMARK  170  A    between atoms: _435  and  _438
REMARK  171  A    between atoms: _438  and  _439
REMARK  172  A    between atoms: _442  and  _444
REMARK  173  A    between atoms: _444  and  _445
REMARK  174  A    between atoms: _444  and  _447
REMARK  175  A    between atoms: _447  and  _448
REMARK  176  A    between atoms: _454  and  _456
REMARK  177  A    between atoms: _456  and  _457
REMARK  178  A    between atoms: _456  and  _459
REMARK  179  A    between atoms: _459  and  _460
REMARK  180  A    between atoms: _460  and  _461
REMARK  181  A    between atoms: _461  and  _462
REMARK  182  A    between atoms: _471  and  _473
REMARK  183  A    between atoms: _473  and  _474
REMARK  184  A    between atoms: _473  and  _476
REMARK  185  A    between atoms: _476  and  _477
REMARK  186  A    between atoms: _483  and  _485
REMARK  187  A    between atoms: _485  and  _486
REMARK  188  A    between atoms: _485  and  _488
REMARK  189  A    between atoms: _488  and  _489
REMARK  190  A    between atoms: _491  and  _493
REMARK  191  A    between atoms: _493  and  _494
REMARK  192  A    between atoms: _493  and  _496
REMARK  193  A    between atoms: _496  and  _497
REMARK  194  A    between atoms: _502  and  _504
REMARK  195  A    between atoms: _504  and  _505
REMARK  196  A    between atoms: _504  and  _507
REMARK  197  A    between atoms: _507  and  _508
REMARK  198  A    between atoms: _508  and  _509
REMARK  199  A    between atoms: _512  and  _514
REMARK  200  A    between atoms: _514  and  _515
REMARK  201  A    between atoms: _517  and  _519
REMARK  202  A    between atoms: _519  and  _520
REMARK  203  A    between atoms: _519  and  _522
REMARK  204  A    between atoms: _522  and  _523
REMARK  205  A    between atoms: _525  and  _527
REMARK  206  A    between atoms: _527  and  _528
REMARK  207  A    between atoms: _527  and  _530
REMARK  208  A    between atoms: _530  and  _531
REMARK  209  A    between atoms: _537  and  _539
REMARK  210  A    between atoms: _539  and  _540
REMARK  211  A    between atoms: _539  and  _542
REMARK  212  A    between atoms: _542  and  _543
REMARK  213  A    between atoms: _549  and  _551
REMARK  214  A    between atoms: _551  and  _552
REMARK  215  A    between atoms: _551  and  _554
REMARK  216  A    between atoms: _554  and  _555
REMARK  217  A    between atoms: _558  and  _560
REMARK  218  A    between atoms: _560  and  _561
REMARK  219  A    between atoms: _560  and  _563
REMARK  220  A    between atoms: _563  and  _564
REMARK  221  A    between atoms: _567  and  _569
REMARK  222  A    between atoms: _569  and  _570
REMARK  223  A    between atoms: _569  and  _572
REMARK  224  A    between atoms: _572  and  _573
REMARK  225  A    between atoms: _578  and  _579
REMARK  226  A    between atoms: _581  and  _583
REMARK  227  A    between atoms: _583  and  _584
REMARK  228  A    between atoms: _586  and  _588
REMARK  229  A    between atoms: _588  and  _589
REMARK  230  A    between atoms: _592  and  _594
REMARK  231  A    between atoms: _594  and  _595
REMARK  232  A    between atoms: _594  and  _597
REMARK  233  A    between atoms: _597  and  _598
REMARK  234  A    between atoms: _601  and  _603
REMARK  235  A    between atoms: _603  and  _604
REMARK  236  A    between atoms: _603  and  _606
REMARK  237  A    between atoms: _606  and  _607
REMARK  238  A    between atoms: _609  and  _611
REMARK  239  A    between atoms: _611  and  _612
REMARK  240  A    between atoms: _611  and  _614
REMARK  241  A    between atoms: _617  and  _619
REMARK  242  A    between atoms: _619  and  _620
REMARK  243  A    between atoms: _619  and  _622
REMARK  244  A    between atoms: _622  and  _623
REMARK  245  A    between atoms: _628  and  _630
REMARK  246  A    between atoms: _630  and  _631
REMARK  247  A    between atoms: _630  and  _633
REMARK  248  A    between atoms: _633  and  _634
REMARK  249  A    between atoms: _644  and  _646
REMARK  250  A    between atoms: _646  and  _647
REMARK  251  A    between atoms: _646  and  _649
REMARK  252  A    between atoms: _649  and  _650
REMARK  253  A    between atoms: _650  and  _651
REMARK  254  A    between atoms: _653  and  _655
REMARK  255  A    between atoms: _655  and  _656
REMARK  256  A    between atoms: _655  and  _658
REMARK  257  A    between atoms: _658  and  _659
REMARK  258  A    between atoms: _662  and  _664
REMARK  259  A    between atoms: _664  and  _665
REMARK  260  A    between atoms: _664  and  _667
REMARK  261  A    between atoms: _667  and  _668
REMARK  262  A    between atoms: _673  and  _675
REMARK  263  A    between atoms: _675  and  _676
REMARK  264  A    between atoms: _678  and  _680
REMARK  265  A    between atoms: _680  and  _681
REMARK  266  A    between atoms: _680  and  _683
REMARK  267  A    between atoms: _683  and  _684
REMARK  268  A    between atoms: _689  and  _690
REMARK  269  A    between atoms: _692  and  _694
REMARK  270  A    between atoms: _694  and  _695
REMARK  271  A    between atoms: _694  and  _697
REMARK  272  A    between atoms: _697  and  _698
REMARK  273  A    between atoms: _698  and  _699
REMARK  274  A    between atoms: _702  and  _704
REMARK  275  A    between atoms: _704  and  _705
REMARK  276  A    between atoms: _704  and  _707
REMARK  277  A    between atoms: _707  and  _708
REMARK                            x       y       z     vdW  Elec       q    Type
REMARK                         _______ _______ _______ _____ _____    ______ ____
ROOT
ATOM      1  CA  SER A   1      11.953  64.612  57.543  0.00  0.00    +0.163 C 
ENDROOT
BRANCH   1   2
ATOM      2  N   SER A   1      11.979  65.377  56.287  0.00  0.00    -0.237 NA
ATOM      3  H   SER A   1      12.890  65.527  55.807  0.00  0.00    +0.142 HD
ENDBRANCH   1   2
BRANCH   1   4
ATOM      4  CB  SER A   1      10.936  63.483  57.511  0.00  0.00    +0.227 C 
ATOM      5  OG  SER A   1      10.186  63.316  58.464  0.00  0.00    -0.287 OA
ENDBRANCH   1   4
BRANCH   1   6
ATOM      6  C   SER A   1      11.584  65.531  58.731  0.00  0.00    +0.162 C 
BRANCH   6   7
ATOM      7  O   SER A   1      12.387  66.713  58.853  0.00  0.00    -0.380 OA
ATOM      8  H   SER A   1      13.335  66.455  58.976  0.00  0.00    +0.211 HD
ENDBRANCH   6   7
ENDBRANCH   1   6
TORSDOF 4
REMARK  Name = ../refined-set-2016/1h22/1h22_pocket.pdb
REMARK  277 active torsions:
REMARK  status: ('A' for Active; 'I' for Inactive)
REMARK    1  A    between atoms: _1  and  _3
REMARK    2  A    between atoms: _3  and  _4
REMARK    3  A    between atoms: _3  and  _6
REMARK    4  A    between atoms: _6  and  _7
REMARK    5  A    between atoms: _7  and  _8
REMARK    6  A    between atoms: _13  and  _15
REMARK    7  A    between atoms: _15  and  _16
REMARK    8  A    between atoms: _15  and  _18
REMARK    9  A    between atoms: _18  and  _19
REMARK   10  A    between atoms: _24  and  _25
REMARK   11  A    between atoms: _27  and  _29
REMARK   12  A    between atoms: _29  and  _30
REMARK   13  A    between atoms: _29  and  _32
REMARK   14  A    between atoms: _35  and  _37
REMARK   15  A    between atoms: _37  and  _38
REMARK   16  A    between atoms: _37  and  _40
REMARK   17  A    between atoms: _40  and  _41
REMARK   18  A    between atoms: _44  and  _46
REMARK   19  A    between atoms: _46  and  _47
REMARK   20  A    between atoms: _46  and  _49
REMARK   21  A    between atoms: _49  and  _50
REMARK   22  A    between atoms: _50  and  _51
REMARK   23  A    between atoms: _54  and  _56
REMARK   24  A    between atoms: _56  and  _57
REMARK   25  A    between atoms: _56  and  _59
REMARK   26  A    between atoms: _59  and  _60
REMARK   27  A    between atoms: _60  and  _61
REMARK   28  A    between atoms: _66  and  _68
REMARK   29  A    between atoms: _68  and  _69
REMARK   30  A    between atoms: _68  and  _71
REMARK   31  A    between atoms: _71  and  _72
REMARK   32  A    between atoms: _78  and  _80
REMARK   33  A    between atoms: _80  and  _81
REMARK   34  A    between atoms: _83  and  _85
REMARK   35  A    between atoms: _85  and  _86
REMARK   36  A    between atoms: _85  and  _88
REMARK   37  A    between atoms: _88  and  _89
REMARK   38  A    between atoms: _91  and  _93
REMARK   39  A    between atoms: _93  and  _94
REMARK   40  A    between atoms: _93  and  _96
REMARK   41  A    between atoms: _96  and  _97
REMARK   42  A    between atoms: _97  and  _98
REMARK   43  A    between atoms: _100  and  _102
REMARK   44  A    between atoms: _102  and  _103
REMARK   45  A    between atoms: _102  and  _105
REMARK   46  A    between atoms: _105  and  _106
REMARK   47  A    between atoms: _116  and  _118
REMARK   48  A    between atoms: _118  and  _119
REMARK   49  A    between atoms: _118  and  _121
REMARK   50  A    between atoms: _121  and  _122
REMARK   51  A    between atoms: _128  and  _129
REMARK   52  A    between atoms: _134  and  _136
REMARK   53  A    between atoms: _136  and  _137
REMARK   54  A    between atoms: _136  and  _139
REMARK   55  A    between atoms: _139  and  _140
REMARK   56  A    between atoms: _150  and  _152
REMARK   57  A    between atoms: _152  and  _153
REMARK   58  A    between atoms: _152  and  _155
REMARK   59  A    between atoms: _155  and  _156
REMARK   60  A    between atoms: _159  and  _161
REMARK   61  A    between atoms: _161  and  _162
REMARK   62  A    between atoms: _161  and  _164
REMARK   63  A    between atoms: _164  and  _165
REMARK   64  A    between atoms: _170  and  _171
REMARK   65  A    between atoms: _173  and  _175
REMARK   66  A    between atoms: _175  and  _176
REMARK   67  A    between atoms: _178  and  _180
REMARK   68  A    between atoms: _180  and  _181
REMARK   69  A    between atoms: _183  and  _185
REMARK   70  A    between atoms: _185  and  _186
REMARK   71  A    between atoms: _188  and  _190
REMARK   72  A    between atoms: _190  and  _191
REMARK   73  A    between atoms: _190  and  _193
REMARK   74  A    between atoms: _193  and  _194
REMARK   75  A    between atoms: _200  and  _202
REMARK   76  A    between atoms: _202  and  _203
REMARK   77  A    between atoms: _202  and  _205
REMARK   78  A    between atoms: _205  and  _206
REMARK   79  A    between atoms: _211  and  _212
REMARK   80  A    between atoms: _214  and  _216
REMARK   81  A    between atoms: _216  and  _217
REMARK   82  A    between atoms: _216  and  _219
REMARK   83  A    between atoms: _219  and  _220
REMARK   84  A    between atoms: _222  and  _224
REMARK   85  A    between atoms: _224  and  _225
REMARK   86  A    between atoms: _227  and  _229
REMARK   87  A    between atoms: _229  and  _230
REMARK   88  A    between atoms: _229  and  _232
REMARK   89  A    between atoms: _232  and  _233
REMARK   90  A    between atoms: _235  and  _237
REMARK   91  A    between atoms: _237  and  _238
REMARK   92  A    between atoms: _237  and  _240
REMARK   93  A    between atoms: _240  and  _241
REMARK   94  A    between atoms: _243  and  _245
REMARK   95  A    between atoms: _245  and  _246
REMARK   96  A    between atoms: _245  and  _248
REMARK   97  A    between atoms: _248  and  _249
REMARK   98  A    between atoms: _252  and  _254
REMARK   99  A    between atoms: _254  and  _255
REMARK  100  A    between atoms: _254  and  _257
REMARK  101  A    between atoms: _257  and  _258
REMARK  102  A    between atoms: _261  and  _263
REMARK  103  A    between atoms: _263  and  _264
REMARK  104  A    between atoms: _263  and  _266
REMARK  105  A    between atoms: _269  and  _271
REMARK  106  A    between atoms: _271  and  _272
REMARK  107  A    between atoms: _271  and  _274
REMARK  108  A    between atoms: _274  and  _275
REMARK  109  A    between atoms: _280  and  _281
REMARK  110  A    between atoms: _283  and  _285
REMARK  111  A    between atoms: _285  and  _286
REMARK  112  A    between atoms: _285  and  _288
REMARK  113  A    between atoms: _288  and  _289
REMARK  114  A    between atoms: _294  and  _295
REMARK  115  A    between atoms: _297  and  _299
REMARK  116  A    between atoms: _299  and  _300
REMARK  117  A    between atoms: _299  and  _302
REMARK  118  A    between atoms: _305  and  _307
REMARK  119  A    between atoms: _307  and  _308
REMARK  120  A    between atoms: _307  and  _310
REMARK  121  A    between atoms: _310  and  _311
REMARK  122  A    between atoms: _311  and  _312
REMARK  123  A    between atoms: _315  and  _317
REMARK  124  A    between atoms: _317  and  _318
REMARK  125  A    between atoms: _317  and  _320
REMARK  126  A    between atoms: _320  and  _321
REMARK  127  A    between atoms: _323  and  _325
REMARK  128  A    between atoms: _325  and  _326
REMARK  129  A    between atoms: _329  and  _331
REMARK  130  A    between atoms: _331  and  _332
REMARK  131  A    between atoms: _334  and  _336
REMARK  132  A    between atoms: _336  and  _337
REMARK  133  A    between atoms: _336  and  _339
REMARK  134  A    between atoms: _339  and  _340
REMARK  135  A    between atoms: _342  and  _344
REMARK  136  A    between atoms: _344  and  _345
REMARK  137  A    between atoms: _344  and  _347
REMARK  138  A    between atoms: _347  and  _348
REMARK  139  A    between atoms: _358  and  _360
REMARK  140  A    between atoms: _360  and  _361
REMARK  141  A    between atoms: _360  and  _363
REMARK  142  A    between atoms: _363  and  _364
REMARK  143  A    between atoms: _364  and  _365
REMARK  144  A    between atoms: _368  and  _370
REMARK  145  A    between atoms: _370  and  _371
REMARK  146  A    between atoms: _370  and  _373
REMARK  147  A    between atoms: _373  and  _374
REMARK  148  A    between atoms: _384  and  _386
REMARK  149  A    between atoms: _386  and  _387
REMARK  150  A    between atoms: _386  and  _389
REMARK  151  A    between atoms: _389  and  _390
REMARK  152  A    between atoms: _395  and  _397
REMARK  153  A    between atoms: _397  and  _398
REMARK  154  A    between atoms: _397  and  _400
REMARK  155  A    between atoms: _400  and  _401
REMARK  156  A    between atoms: _404  and  _406
REMARK  157  A    between atoms: _406  and  _407
REMARK  158  A    between atoms: _406  and  _409
REMARK  159  A    between atoms: _409  and  _410
REMARK  160  A    between atoms: _416  and  _418
REMARK  161  A    between atoms: _418  and  _419
REMARK  162  A    between atoms: _418  and  _421
REMARK  163  A    between atoms: _421  and  _422
REMARK  164  A    between atoms: _425  and  _427
REMARK  165  A    between atoms: _427  and  _428
REMARK  166  A    between atoms: _427  and  _430
REMARK  167  A    between atoms: _430  and  _431
REMARK  168  A    between atoms: _433  and  _435
REMARK  169  A    between atoms: _435  and  _436
REMARK  170  A    between atoms: _435  and  _438
REMARK  171  A    between atoms: _438  and  _439
REMARK  172  A    between atoms: _442  and  _444
REMARK  173  A    between atoms: _444  and  _445
REMARK  174  A    between atoms: _444  and  _447
REMARK  175  A    between atoms: _447  and  _448
REMARK  176  A    between atoms: _454  and  _456
REMARK  177  A    between atoms: _456  and  _457
REMARK  178  A    between atoms: _456  and  _459
REMARK  179  A    between atoms: _459  and  _460
REMARK  180  A    between atoms: _460  and  _461
REMARK  181  A    between atoms: _461  and  _462
REMARK  182  A    between atoms: _471  and  _473
REMARK  183  A    between atoms: _473  and  _474
REMARK  184  A    between atoms: _473  and  _476
REMARK  185  A    between atoms: _476  and  _477
REMARK  186  A    between atoms: _483  and  _485
REMARK  187  A    between atoms: _485  and  _486
REMARK  188  A    between atoms: _485  and  _488
REMARK  189  A    between atoms: _488  and  _489
REMARK  190  A    between atoms: _491  and  _493
REMARK  191  A    between atoms: _493  and  _494
REMARK  192  A    between atoms: _493  and  _496
REMARK  193  A    between atoms: _496  and  _497
REMARK  194  A    between atoms: _502  and  _504
REMARK  195  A    between atoms: _504  and  _505
REMARK  196  A    between atoms: _504  and  _507
REMARK  197  A    between atoms: _507  and  _508
REMARK  198  A    between atoms: _508  and  _509
REMARK  199  A    between atoms: _512  and  _514
REMARK  200  A    between atoms: _514  and  _515
REMARK  201  A    between atoms: _517  and  _519
REMARK  202  A    between atoms: _519  and  _520
REMARK  203  A    between atoms: _519  and  _522
REMARK  204  A    between atoms: _522  and  _523
REMARK  205  A    between atoms: _525  and  _527
REMARK  206  A    between atoms: _527  and  _528
REMARK  207  A    between atoms: _527  and  _530
REMARK  208  A    between atoms: _530  and  _531
REMARK  209  A    between atoms: _537  and  _539
REMARK  210  A    between atoms: _539  and  _540
REMARK  211  A    between atoms: _539  and  _542
REMARK  212  A    between atoms: _542  and  _543
REMARK  213  A    between atoms: _549  and  _551
REMARK  214  A    between atoms: _551  and  _552
REMARK  215  A    between atoms: _551  and  _554
REMARK  216  A    between atoms: _554  and  _555
REMARK  217  A    between atoms: _558  and  _560
REMARK  218  A    between atoms: _560  and  _561
REMARK  219  A    between atoms: _560  and  _563
REMARK  220  A    between atoms: _563  and  _564
REMARK  221  A    between atoms: _567  and  _569
REMARK  222  A    between atoms: _569  and  _570
REMARK  223  A    between atoms: _569  and  _572
REMARK  224  A    between atoms: _572  and  _573
REMARK  225  A    between atoms: _578  and  _579
REMARK  226  A    between atoms: _581  and  _583
REMARK  227  A    between atoms: _583  and  _584
REMARK  228  A    between atoms: _586  and  _588
REMARK  229  A    between atoms: _588  and  _589
REMARK  230  A    between atoms: _592  and  _594
REMARK  231  A    between atoms: _594  and  _595
REMARK  232  A    between atoms: _594  and  _597
REMARK  233  A    between atoms: _597  and  _598
REMARK  234  A    between atoms: _601  and  _603
REMARK  235  A    between atoms: _603  and  _604
REMARK  236  A    between atoms: _603  and  _606
REMARK  237  A    between atoms: _606  and  _607
REMARK  238  A    between atoms: _609  and  _611
REMARK  239  A    between atoms: _611  and  _612
REMARK  240  A    between atoms: _611  and  _614
REMARK  241  A    between atoms: _617  and  _619
REMARK  242  A    between atoms: _619  and  _620
REMARK  243  A    between atoms: _619  and  _622
REMARK  244  A    between atoms: _622  and  _623
REMARK  245  A    between atoms: _628  and  _630
REMARK  246  A    between atoms: _630  and  _631
REMARK  247  A    between atoms: _630  and  _633
REMARK  248  A    between atoms: _633  and  _634
REMARK  249  A    between atoms: _644  and  _646
REMARK  250  A    between atoms: _646  and  _647
REMARK  251  A    between atoms: _646  and  _649
REMARK  252  A    between atoms: _649  and  _650
REMARK  253  A    between atoms: _650  and  _651
REMARK  254  A    between atoms: _653  and  _655
REMARK  255  A    between atoms: _655  and  _656
REMARK  256  A    between atoms: _655  and  _658
REMARK  257  A    between atoms: _658  and  _659
REMARK  258  A    between atoms: _662  and  _664
REMARK  259  A    between atoms: _664  and  _665
REMARK  260  A    between atoms: _664  and  _667
REMARK  261  A    between atoms: _667  and  _668
REMARK  262  A    between atoms: _673  and  _675
REMARK  263  A    between atoms: _675  and  _676
REMARK  264  A    between atoms: _678  and  _680
REMARK  265  A    between atoms: _680  and  _681
REMARK  266  A    between atoms: _680  and  _683
REMARK  267  A    between atoms: _683  and  _684
REMARK  268  A    between atoms: _689  and  _690
REMARK  269  A    between atoms: _692  and  _694
REMARK  270  A    between atoms: _694  and  _695
REMARK  271  A    between atoms: _694  and  _697
REMARK  272  A    between atoms: _697  and  _698
REMARK  273  A    between atoms: _698  and  _699
REMARK  274  A    between atoms: _702  and  _704
REMARK  275  A    between atoms: _704  and  _705
REMARK  276  A    between atoms: _704  and  _707
REMARK  277  A    between atoms: _707  and  _708
REMARK                            x       y       z     vdW  Elec       q    Type
REMARK                         _______ _______ _______ _____ _____    ______ ____
ROOT
ATOM      1  CG  TRP A   1       7.010  56.617  62.121  0.00  0.00    -0.002 A 
ATOM      2  CD1 TRP A   1       8.349  56.868  62.299  0.00  0.00    +0.068 A 
ATOM      3  NE1 TRP A   1       8.775  57.863  61.433  0.00  0.00    -0.352 N 
ATOM      4  HE1 TRP A   1       9.744  58.234  61.367  0.00  0.00    +0.166 HD
ATOM      5  CE2 TRP A   1       7.712  58.277  60.679  0.00  0.00    +0.056 A 
ATOM      6  CZ2 TRP A   1       7.646  59.265  59.678  0.00  0.00    +0.017 A 
ATOM      7  CH2 TRP A   1       6.405  59.495  59.083  0.00  0.00    +0.001 A 
ATOM      8  CZ3 TRP A   1       5.238  58.746  59.471  0.00  0.00    +0.000 A 
ATOM      9  CE3 TRP A   1       5.318  57.751  60.465  0.00  0.00    +0.001 A 
ATOM     10  CD2 TRP A   1       6.572  57.507  61.086  0.00  0.00    +0.013 A 
ENDROOT
BRANCH   1  11
ATOM     11  CB  TRP A   1       6.156  55.541  62.876  0.00  0.00    +0.053 C 
BRANCH  11  12
ATOM     12  CA  TRP A   1       6.109  54.209  62.090  0.00  0.00    +0.137 C 
BRANCH  12  13
ATOM     13  N   TRP A   1       7.449  53.836  61.650  0.00  0.00    -0.239 NA
ATOM     14  H   TRP A   1       8.121  54.596  61.423  0.00  0.00    +0.142 HD
ENDBRANCH  12  13
BRANCH  12  15
ATOM     15  C   TRP A   1       5.131  54.458  60.911  0.00  0.00    +0.224 C 
ATOM     16  O   TRP A   1       3.952  54.651  61.161  0.00  0.00    -0.287 OA
ENDBRANCH  12  15
ENDBRANCH  11  12
ENDBRANCH   1  11
TORSDOF 4
REMARK  Name = ../refined-set-2016/1h22/1h22_pocket.pdb
REMARK  277 active torsions:
REMARK  status: ('A' for Active; 'I' for Inactive)
REMARK    1  A    between atoms: _1  and  _3
REMARK    2  A    between atoms: _3  and  _4
REMARK    3  A    between atoms: _3  and  _6
REMARK    4  A    between atoms: _6  and  _7
REMARK    5  A    between atoms: _7  and  _8
REMARK    6  A    between atoms: _13  and  _15
REMARK    7  A    between atoms: _15  and  _16
REMARK    8  A    between atoms: _15  and  _18
REMARK    9  A    between atoms: _18  and  _19
REMARK   10  A    between atoms: _24  and  _25
REMARK   11  A    between atoms: _27  and  _29
REMARK   12  A    between atoms: _29  and  _30
REMARK   13  A    between atoms: _29  and  _32
REMARK   14  A    between atoms: _35  and  _37
REMARK   15  A    between atoms: _37  and  _38
REMARK   16  A    between atoms: _37  and  _40
REMARK   17  A    between atoms: _40  and  _41
REMARK   18  A    between atoms: _44  and  _46
REMARK   19  A    between atoms: _46  and  _47
REMARK   20  A    between atoms: _46  and  _49
REMARK   21  A    between atoms: _49  and  _50
REMARK   22  A    between atoms: _50  and  _51
REMARK   23  A    between atoms: _54  and  _56
REMARK   24  A    between atoms: _56  and  _57
REMARK   25  A    between atoms: _56  and  _59
REMARK   26  A    between atoms: _59  and  _60
REMARK   27  A    between atoms: _60  and  _61
REMARK   28  A    between atoms: _66  and  _68
REMARK   29  A    between atoms: _68  and  _69
REMARK   30  A    between atoms: _68  and  _71
REMARK   31  A    between atoms: _71  and  _72
REMARK   32  A    between atoms: _78  and  _80
REMARK   33  A    between atoms: _80  and  _81
REMARK   34  A    between atoms: _83  and  _85
REMARK   35  A    between atoms: _85  and  _86
REMARK   36  A    between atoms: _85  and  _88
REMARK   37  A    between atoms: _88  and  _89
REMARK   38  A    between atoms: _91  and  _93
REMARK   39  A    between atoms: _93  and  _94
REMARK   40  A    between atoms: _93  and  _96
REMARK   41  A    between atoms: _96  and  _97
REMARK   42  A    between atoms: _97  and  _98
REMARK   43  A    between atoms: _100  and  _102
REMARK   44  A    between atoms: _102  and  _103
REMARK   45  A    between atoms: _102  and  _105
REMARK   46  A    between atoms: _105  and  _106
REMARK   47  A    between atoms: _116  and  _118
REMARK   48  A    between atoms: _118  and  _119
REMARK   49  A    between atoms: _118  and  _121
REMARK   50  A    between atoms: _121  and  _122
REMARK   51  A    between atoms: _128  and  _129
REMARK   52  A    between atoms: _134  and  _136
REMARK   53  A    between atoms: _136  and  _137
REMARK   54  A    between atoms: _136  and  _139
REMARK   55  A    between atoms: _139  and  _140
REMARK   56  A    between atoms: _150  and  _152
REMARK   57  A    between atoms: _152  and  _153
REMARK   58  A    between atoms: _152  and  _155
REMARK   59  A    between atoms: _155  and  _156
REMARK   60  A    between atoms: _159  and  _161
REMARK   61  A    between atoms: _161  and  _162
REMARK   62  A    between atoms: _161  and  _164
REMARK   63  A    between atoms: _164  and  _165
REMARK   64  A    between atoms: _170  and  _171
REMARK   65  A    between atoms: _173  and  _175
REMARK   66  A    between atoms: _175  and  _176
REMARK   67  A    between atoms: _178  and  _180
REMARK   68  A    between atoms: _180  and  _181
REMARK   69  A    between atoms: _183  and  _185
REMARK   70  A    between atoms: _185  and  _186
REMARK   71  A    between atoms: _188  and  _190
REMARK   72  A    between atoms: _190  and  _191
REMARK   73  A    between atoms: _190  and  _193
REMARK   74  A    between atoms: _193  and  _194
REMARK   75  A    between atoms: _200  and  _202
REMARK   76  A    between atoms: _202  and  _203
REMARK   77  A    between atoms: _202  and  _205
REMARK   78  A    between atoms: _205  and  _206
REMARK   79  A    between atoms: _211  and  _212
REMARK   80  A    between atoms: _214  and  _216
REMARK   81  A    between atoms: _216  and  _217
REMARK   82  A    between atoms: _216  and  _219
REMARK   83  A    between atoms: _219  and  _220
REMARK   84  A    between atoms: _222  and  _224
REMARK   85  A    between atoms: _224  and  _225
REMARK   86  A    between atoms: _227  and  _229
REMARK   87  A    between atoms: _229  and  _230
REMARK   88  A    between atoms: _229  and  _232
REMARK   89  A    between atoms: _232  and  _233
REMARK   90  A    between atoms: _235  and  _237
REMARK   91  A    between atoms: _237  and  _238
REMARK   92  A    between atoms: _237  and  _240
REMARK   93  A    between atoms: _240  and  _241
REMARK   94  A    between atoms: _243  and  _245
REMARK   95  A    between atoms: _245  and  _246
REMARK   96  A    between atoms: _245  and  _248
REMARK   97  A    between atoms: _248  and  _249
REMARK   98  A    between atoms: _252  and  _254
REMARK   99  A    between atoms: _254  and  _255
REMARK  100  A    between atoms: _254  and  _257
REMARK  101  A    between atoms: _257  and  _258
REMARK  102  A    between atoms: _261  and  _263
REMARK  103  A    between atoms: _263  and  _264
REMARK  104  A    between atoms: _263  and  _266
REMARK  105  A    between atoms: _269  and  _271
REMARK  106  A    between atoms: _271  and  _272
REMARK  107  A    between atoms: _271  and  _274
REMARK  108  A    between atoms: _274  and  _275
REMARK  109  A    between atoms: _280  and  _281
REMARK  110  A    between atoms: _283  and  _285
REMARK  111  A    between atoms: _285  and  _286
REMARK  112  A    between atoms: _285  and  _288
REMARK  113  A    between atoms: _288  and  _289
REMARK  114  A    between atoms: _294  and  _295
REMARK  115  A    between atoms: _297  and  _299
REMARK  116  A    between atoms: _299  and  _300
REMARK  117  A    between atoms: _299  and  _302
REMARK  118  A    between atoms: _305  and  _307
REMARK  119  A    between atoms: _307  and  _308
REMARK  120  A    between atoms: _307  and  _310
REMARK  121  A    between atoms: _310  and  _311
REMARK  122  A    between atoms: _311  and  _312
REMARK  123  A    between atoms: _315  and  _317
REMARK  124  A    between atoms: _317  and  _318
REMARK  125  A    between atoms: _317  and  _320
REMARK  126  A    between atoms: _320  and  _321
REMARK  127  A    between atoms: _323  and  _325
REMARK  128  A    between atoms: _325  and  _326
REMARK  129  A    between atoms: _329  and  _331
REMARK  130  A    between atoms: _331  and  _332
REMARK  131  A    between atoms: _334  and  _336
REMARK  132  A    between atoms: _336  and  _337
REMARK  133  A    between atoms: _336  and  _339
REMARK  134  A    between atoms: _339  and  _340
REMARK  135  A    between atoms: _342  and  _344
REMARK  136  A    between atoms: _344  and  _345
REMARK  137  A    between atoms: _344  and  _347
REMARK  138  A    between atoms: _347  and  _348
REMARK  139  A    between atoms: _358  and  _360
REMARK  140  A    between atoms: _360  and  _361
REMARK  141  A    between atoms: _360  and  _363
REMARK  142  A    between atoms: _363  and  _364
REMARK  143  A    between atoms: _364  and  _365
REMARK  144  A    between atoms: _368  and  _370
REMARK  145  A    between atoms: _370  and  _371
REMARK  146  A    between atoms: _370  and  _373
REMARK  147  A    between atoms: _373  and  _374
REMARK  148  A    between atoms: _384  and  _386
REMARK  149  A    between atoms: _386  and  _387
REMARK  150  A    between atoms: _386  and  _389
REMARK  151  A    between atoms: _389  and  _390
REMARK  152  A    between atoms: _395  and  _397
REMARK  153  A    between atoms: _397  and  _398
REMARK  154  A    between atoms: _397  and  _400
REMARK  155  A    between atoms: _400  and  _401
REMARK  156  A    between atoms: _404  and  _406
REMARK  157  A    between atoms: _406  and  _407
REMARK  158  A    between atoms: _406  and  _409
REMARK  159  A    between atoms: _409  and  _410
REMARK  160  A    between atoms: _416  and  _418
REMARK  161  A    between atoms: _418  and  _419
REMARK  162  A    between atoms: _418  and  _421
REMARK  163  A    between atoms: _421  and  _422
REMARK  164  A    between atoms: _425  and  _427
REMARK  165  A    between atoms: _427  and  _428
REMARK  166  A    between atoms: _427  and  _430
REMARK  167  A    between atoms: _430  and  _431
REMARK  168  A    between atoms: _433  and  _435
REMARK  169  A    between atoms: _435  and  _436
REMARK  170  A    between atoms: _435  and  _438
REMARK  171  A    between atoms: _438  and  _439
REMARK  172  A    between atoms: _442  and  _444
REMARK  173  A    between atoms: _444  and  _445
REMARK  174  A    between atoms: _444  and  _447
REMARK  175  A    between atoms: _447  and  _448
REMARK  176  A    between atoms: _454  and  _456
REMARK  177  A    between atoms: _456  and  _457
REMARK  178  A    between atoms: _456  and  _459
REMARK  179  A    between atoms: _459  and  _460
REMARK  180  A    between atoms: _460  and  _461
REMARK  181  A    between atoms: _461  and  _462
REMARK  182  A    between atoms: _471  and  _473
REMARK  183  A    between atoms: _473  and  _474
REMARK  184  A    between atoms: _473  and  _476
REMARK  185  A    between atoms: _476  and  _477
REMARK  186  A    between atoms: _483  and  _485
REMARK  187  A    between atoms: _485  and  _486
REMARK  188  A    between atoms: _485  and  _488
REMARK  189  A    between atoms: _488  and  _489
REMARK  190  A    between atoms: _491  and  _493
REMARK  191  A    between atoms: _493  and  _494
REMARK  192  A    between atoms: _493  and  _496
REMARK  193  A    between atoms: _496  and  _497
REMARK  194  A    between atoms: _502  and  _504
REMARK  195  A    between atoms: _504  and  _505
REMARK  196  A    between atoms: _504  and  _507
REMARK  197  A    between atoms: _507  and  _508
REMARK  198  A    between atoms: _508  and  _509
REMARK  199  A    between atoms: _512  and  _514
REMARK  200  A    between atoms: _514  and  _515
REMARK  201  A    between atoms: _517  and  _519
REMARK  202  A    between atoms: _519  and  _520
REMARK  203  A    between atoms: _519  and  _522
REMARK  204  A    between atoms: _522  and  _523
REMARK  205  A    between atoms: _525  and  _527
REMARK  206  A    between atoms: _527  and  _528
REMARK  207  A    between atoms: _527  and  _530
REMARK  208  A    between atoms: _530  and  _531
REMARK  209  A    between atoms: _537  and  _539
REMARK  210  A    between atoms: _539  and  _540
REMARK  211  A    between atoms: _539  and  _542
REMARK  212  A    between atoms: _542  and  _543
REMARK  213  A    between atoms: _549  and  _551
REMARK  214  A    between atoms: _551  and  _552
REMARK  215  A    between atoms: _551  and  _554
REMARK  216  A    between atoms: _554  and  _555
REMARK  217  A    between atoms: _558  and  _560
REMARK  218  A    between atoms: _560  and  _561
REMARK  219  A    between atoms: _560  and  _563
REMARK  220  A    between atoms: _563  and  _564
REMARK  221  A    between atoms: _567  and  _569
REMARK  222  A    between atoms: _569  and  _570
REMARK  223  A    between atoms: _569  and  _572
REMARK  224  A    between atoms: _572  and  _573
REMARK  225  A    between atoms: _578  and  _579
REMARK  226  A    between atoms: _581  and  _583
REMARK  227  A    between atoms: _583  and  _584
REMARK  228  A    between atoms: _586  and  _588
REMARK  229  A    between atoms: _588  and  _589
REMARK  230  A    between atoms: _592  and  _594
REMARK  231  A    between atoms: _594  and  _595
REMARK  232  A    between atoms: _594  and  _597
REMARK  233  A    between atoms: _597  and  _598
REMARK  234  A    between atoms: _601  and  _603
REMARK  235  A    between atoms: _603  and  _604
REMARK  236  A    between atoms: _603  and  _606
REMARK  237  A    between atoms: _606  and  _607
REMARK  238  A    between atoms: _609  and  _611
REMARK  239  A    between atoms: _611  and  _612
REMARK  240  A    between atoms: _611  and  _614
REMARK  241  A    between atoms: _617  and  _619
REMARK  242  A    between atoms: _619  and  _620
REMARK  243  A    between atoms: _619  and  _622
REMARK  244  A    between atoms: _622  and  _623
REMARK  245  A    between atoms: _628  and  _630
REMARK  246  A    between atoms: _630  and  _631
REMARK  247  A    between atoms: _630  and  _633
REMARK  248  A    between atoms: _633  and  _634
REMARK  249  A    between atoms: _644  and  _646
REMARK  250  A    between atoms: _646  and  _647
REMARK  251  A    between atoms: _646  and  _649
REMARK  252  A    between atoms: _649  and  _650
REMARK  253  A    between atoms: _650  and  _651
REMARK  254  A    between atoms: _653  and  _655
REMARK  255  A    between atoms: _655  and  _656
REMARK  256  A    between atoms: _655  and  _658
REMARK  257  A    between atoms: _658  and  _659
REMARK  258  A    between atoms: _662  and  _664
REMARK  259  A    between atoms: _664  and  _665
REMARK  260  A    between atoms: _664  and  _667
REMARK  261  A    between atoms: _667  and  _668
REMARK  262  A    between atoms: _673  and  _675
REMARK  263  A    between atoms: _675  and  _676
REMARK  264  A    between atoms: _678  and  _680
REMARK  265  A    between atoms: _680  and  _681
REMARK  266  A    between atoms: _680  and  _683
REMARK  267  A    between atoms: _683  and  _684
REMARK  268  A    between atoms: _689  and  _690
REMARK  269  A    between atoms: _692  and  _694
REMARK  270  A    between atoms: _694  and  _695
REMARK  271  A    between atoms: _694  and  _697
REMARK  272  A    between atoms: _697  and  _698
REMARK  273  A    between atoms: _698  and  _699
REMARK  274  A    between atoms: _702  and  _704
REMARK  275  A    between atoms: _704  and  _705
REMARK  276  A    between atoms: _704  and  _707
REMARK  277  A    between atoms: _707  and  _708
REMARK                            x       y       z     vdW  Elec       q    Type
REMARK                         _______ _______ _______ _____ _____    ______ ____
ROOT
ATOM      1  CA  TRP A   2      -4.085  55.524  71.334  0.00  0.00    +0.153 C 
ENDROOT
BRANCH   1   3
ATOM      2  C   GLU A   1      -5.922  55.153  69.795  0.00  0.00    +0.238 C 
ATOM      3  N   TRP A   2      -5.401  55.838  70.818  0.00  0.00    -0.297 N 
ATOM      4  H   TRP A   2      -5.950  56.609  71.250  0.00  0.00    +0.150 HD
ATOM      5  O   GLU A   1      -5.320  54.211  69.264  0.00  0.00    -0.274 OA
BRANCH   2   6
ATOM      6  CA  GLU A   1      -7.306  55.628  69.281  0.00  0.00    +0.145 C 
BRANCH   6   7
ATOM      7  N   GLU A   1      -8.282  55.914  70.336  0.00  0.00    -0.238 NA
ATOM      8  H   GLU A   1      -8.850  56.783  70.286  0.00  0.00    +0.142 HD
ENDBRANCH   6   7
BRANCH   6   9
ATOM      9  CB  GLU A   1      -7.116  56.914  68.464  0.00  0.00    +0.038 C 
BRANCH   9  10
ATOM     10  CG  GLU A   1      -6.031  56.868  67.388  0.00  0.00    +0.116 C 
BRANCH  10  11
ATOM     11  CD  GLU A   1      -5.839  58.238  66.619  0.00  0.00    +0.365 C 
ATOM     12  OE2 GLU A   1      -6.808  59.030  66.485  0.00  0.00    -0.246 OA
ATOM     13  OE1 GLU A   1      -4.719  58.482  66.130  0.00  0.00    -0.246 OA
ENDBRANCH  10  11
ENDBRANCH   9  10
ENDBRANCH   6   9
ENDBRANCH   2   6
ENDBRANCH   1   3
BRANCH   1  14
ATOM     14  C   TRP A   2      -4.059  54.196  72.089  0.00  0.00    +0.241 C 
ATOM     15  N   ASN A   3      -5.225  53.649  72.457  0.00  0.00    -0.298 N 
ATOM     16  H   ASN A   3      -6.119  54.123  72.217  0.00  0.00    +0.150 HD
ATOM     17  O   TRP A   2      -2.983  53.654  72.295  0.00  0.00    -0.273 OA
BRANCH  15  18
ATOM     18  CA  ASN A   3      -5.245  52.383  73.198  0.00  0.00    +0.146 C 
BRANCH  18  19
ATOM     19  C   ASN A   3      -4.888  51.164  72.380  0.00  0.00    +0.227 C 
ATOM     20  O   ASN A   3      -4.646  50.099  72.932  0.00  0.00    -0.286 OA
ENDBRANCH  18  19
BRANCH  18  21
ATOM     21  CB  ASN A   3      -6.632  52.133  73.852  0.00  0.00    +0.112 C 
BRANCH  21  22
ATOM     22  CG  ASN A   3      -7.023  53.237  74.844  0.00  0.00    +0.222 C 
ATOM     23  OD1 ASN A   3      -6.161  54.035  75.290  0.00  0.00    -0.275 OA
ATOM     24  ND2 ASN A   3      -8.317  53.296  75.209  0.00  0.00    -0.329 N 
ATOM     25 HD21 ASN A   3      -8.634  54.021  75.883  0.00  0.00    +0.145 HD
ATOM     26 HD22 ASN A   3      -8.999  52.616  74.817  0.00  0.00    +0.145 HD
ENDBRANCH  21  22
ENDBRANCH  18  21
ENDBRANCH  15  18
ENDBRANCH   1  14
BRANCH   1  27
ATOM     27  CB  TRP A   2      -3.583  56.663  72.231  0.00  0.00    +0.057 C 
BRANCH  27  28
ATOM     28  CG  TRP A   2      -3.370  57.905  71.483  0.00  0.00    -0.002 A 
ATOM     29  CD1 TRP A   2      -4.219  58.994  71.419  0.00  0.00    +0.068 A 
ATOM     30  NE1 TRP A   2      -3.698  59.941  70.569  0.00  0.00    -0.352 N 
ATOM     31  HE1 TRP A   2      -4.137  60.857  70.344  0.00  0.00    +0.166 HD
ATOM     32  CE2 TRP A   2      -2.503  59.483  70.063  0.00  0.00    +0.056 A 
ATOM     33  CZ2 TRP A   2      -1.608  60.097  69.150  0.00  0.00    +0.017 A 
ATOM     34  CH2 TRP A   2      -0.473  59.406  68.802  0.00  0.00    +0.001 A 
ATOM     35  CZ3 TRP A   2      -0.206  58.134  69.344  0.00  0.00    +0.000 A 
ATOM     36  CE3 TRP A   2      -1.104  57.527  70.263  0.00  0.00    +0.001 A 
ATOM     37  CD2 TRP A   2      -2.262  58.208  70.619  0.00  0.00    +0.013 A 
ENDBRANCH  27  28
ENDBRANCH   1  27
TORSDOF 13
REMARK  Name = ../refined-set-2016/1h22/1h22_pocket.pdb
REMARK  277 active torsions:
REMARK  status: ('A' for Active; 'I' for Inactive)
REMARK    1  A    between atoms: _1  and  _3
REMARK    2  A    between atoms: _3  and  _4
REMARK    3  A    between atoms: _3  and  _6
REMARK    4  A    between atoms: _6  and  _7
REMARK    5  A    between atoms: _7  and  _8
REMARK    6  A    between atoms: _13  and  _15
REMARK    7  A    between atoms: _15  and  _16
REMARK    8  A    between atoms: _15  and  _18
REMARK    9  A    between atoms: _18  and  _19
REMARK   10  A    between atoms: _24  and  _25
REMARK   11  A    between atoms: _27  and  _29
REMARK   12  A    between atoms: _29  and  _30
REMARK   13  A    between atoms: _29  and  _32
REMARK   14  A    between atoms: _35  and  _37
REMARK   15  A    between atoms: _37  and  _38
REMARK   16  A    between atoms: _37  and  _40
REMARK   17  A    between atoms: _40  and  _41
REMARK   18  A    between atoms: _44  and  _46
REMARK   19  A    between atoms: _46  and  _47
REMARK   20  A    between atoms: _46  and  _49
REMARK   21  A    between atoms: _49  and  _50
REMARK   22  A    between atoms: _50  and  _51
REMARK   23  A    between atoms: _54  and  _56
REMARK   24  A    between atoms: _56  and  _57
REMARK   25  A    between atoms: _56  and  _59
REMARK   26  A    between atoms: _59  and  _60
REMARK   27  A    between atoms: _60  and  _61
REMARK   28  A    between atoms: _66  and  _68
REMARK   29  A    between atoms: _68  and  _69
REMARK   30  A    between atoms: _68  and  _71
REMARK   31  A    between atoms: _71  and  _72
REMARK   32  A    between atoms: _78  and  _80
REMARK   33  A    between atoms: _80  and  _81
REMARK   34  A    between atoms: _83  and  _85
REMARK   35  A    between atoms: _85  and  _86
REMARK   36  A    between atoms: _85  and  _88
REMARK   37  A    between atoms: _88  and  _89
REMARK   38  A    between atoms: _91  and  _93
REMARK   39  A    between atoms: _93  and  _94
REMARK   40  A    between atoms: _93  and  _96
REMARK   41  A    between atoms: _96  and  _97
REMARK   42  A    between atoms: _97  and  _98
REMARK   43  A    between atoms: _100  and  _102
REMARK   44  A    between atoms: _102  and  _103
REMARK   45  A    between atoms: _102  and  _105
REMARK   46  A    between atoms: _105  and  _106
REMARK   47  A    between atoms: _116  and  _118
REMARK   48  A    between atoms: _118  and  _119
REMARK   49  A    between atoms: _118  and  _121
REMARK   50  A    between atoms: _121  and  _122
REMARK   51  A    between atoms: _128  and  _129
REMARK   52  A    between atoms: _134  and  _136
REMARK   53  A    between atoms: _136  and  _137
REMARK   54  A    between atoms: _136  and  _139
REMARK   55  A    between atoms: _139  and  _140
REMARK   56  A    between atoms: _150  and  _152
REMARK   57  A    between atoms: _152  and  _153
REMARK   58  A    between atoms: _152  and  _155
REMARK   59  A    between atoms: _155  and  _156
REMARK   60  A    between atoms: _159  and  _161
REMARK   61  A    between atoms: _161  and  _162
REMARK   62  A    between atoms: _161  and  _164
REMARK   63  A    between atoms: _164  and  _165
REMARK   64  A    between atoms: _170  and  _171
REMARK   65  A    between atoms: _173  and  _175
REMARK   66  A    between atoms: _175  and  _176
REMARK   67  A    between atoms: _178  and  _180
REMARK   68  A    between atoms: _180  and  _181
REMARK   69  A    between atoms: _183  and  _185
REMARK   70  A    between atoms: _185  and  _186
REMARK   71  A    between atoms: _188  and  _190
REMARK   72  A    between atoms: _190  and  _191
REMARK   73  A    between atoms: _190  and  _193
REMARK   74  A    between atoms: _193  and  _194
REMARK   75  A    between atoms: _200  and  _202
REMARK   76  A    between atoms: _202  and  _203
REMARK   77  A    between atoms: _202  and  _205
REMARK   78  A    between atoms: _205  and  _206
REMARK   79  A    between atoms: _211  and  _212
REMARK   80  A    between atoms: _214  and  _216
REMARK   81  A    between atoms: _216  and  _217
REMARK   82  A    between atoms: _216  and  _219
REMARK   83  A    between atoms: _219  and  _220
REMARK   84  A    between atoms: _222  and  _224
REMARK   85  A    between atoms: _224  and  _225
REMARK   86  A    between atoms: _227  and  _229
REMARK   87  A    between atoms: _229  and  _230
REMARK   88  A    between atoms: _229  and  _232
REMARK   89  A    between atoms: _232  and  _233
REMARK   90  A    between atoms: _235  and  _237
REMARK   91  A    between atoms: _237  and  _238
REMARK   92  A    between atoms: _237  and  _240
REMARK   93  A    between atoms: _240  and  _241
REMARK   94  A    between atoms: _243  and  _245
REMARK   95  A    between atoms: _245  and  _246
REMARK   96  A    between atoms: _245  and  _248
REMARK   97  A    between atoms: _248  and  _249
REMARK   98  A    between atoms: _252  and  _254
REMARK   99  A    between atoms: _254  and  _255
REMARK  100  A    between atoms: _254  and  _257
REMARK  101  A    between atoms: _257  and  _258
REMARK  102  A    between atoms: _261  and  _263
REMARK  103  A    between atoms: _263  and  _264
REMARK  104  A    between atoms: _263  and  _266
REMARK  105  A    between atoms: _269  and  _271
REMARK  106  A    between atoms: _271  and  _272
REMARK  107  A    between atoms: _271  and  _274
REMARK  108  A    between atoms: _274  and  _275
REMARK  109  A    between atoms: _280  and  _281
REMARK  110  A    between atoms: _283  and  _285
REMARK  111  A    between atoms: _285  and  _286
REMARK  112  A    between atoms: _285  and  _288
REMARK  113  A    between atoms: _288  and  _289
REMARK  114  A    between atoms: _294  and  _295
REMARK  115  A    between atoms: _297  and  _299
REMARK  116  A    between atoms: _299  and  _300
REMARK  117  A    between atoms: _299  and  _302
REMARK  118  A    between atoms: _305  and  _307
REMARK  119  A    between atoms: _307  and  _308
REMARK  120  A    between atoms: _307  and  _310
REMARK  121  A    between atoms: _310  and  _311
REMARK  122  A    between atoms: _311  and  _312
REMARK  123  A    between atoms: _315  and  _317
REMARK  124  A    between atoms: _317  and  _318
REMARK  125  A    between atoms: _317  and  _320
REMARK  126  A    between atoms: _320  and  _321
REMARK  127  A    between atoms: _323  and  _325
REMARK  128  A    between atoms: _325  and  _326
REMARK  129  A    between atoms: _329  and  _331
REMARK  130  A    between atoms: _331  and  _332
REMARK  131  A    between atoms: _334  and  _336
REMARK  132  A    between atoms: _336  and  _337
REMARK  133  A    between atoms: _336  and  _339
REMARK  134  A    between atoms: _339  and  _340
REMARK  135  A    between atoms: _342  and  _344
REMARK  136  A    between atoms: _344  and  _345
REMARK  137  A    between atoms: _344  and  _347
REMARK  138  A    between atoms: _347  and  _348
REMARK  139  A    between atoms: _358  and  _360
REMARK  140  A    between atoms: _360  and  _361
REMARK  141  A    between atoms: _360  and  _363
REMARK  142  A    between atoms: _363  and  _364
REMARK  143  A    between atoms: _364  and  _365
REMARK  144  A    between atoms: _368  and  _370
REMARK  145  A    between atoms: _370  and  _371
REMARK  146  A    between atoms: _370  and  _373
REMARK  147  A    between atoms: _373  and  _374
REMARK  148  A    between atoms: _384  and  _386
REMARK  149  A    between atoms: _386  and  _387
REMARK  150  A    between atoms: _386  and  _389
REMARK  151  A    between atoms: _389  and  _390
REMARK  152  A    between atoms: _395  and  _397
REMARK  153  A    between atoms: _397  and  _398
REMARK  154  A    between atoms: _397  and  _400
REMARK  155  A    between atoms: _400  and  _401
REMARK  156  A    between atoms: _404  and  _406
REMARK  157  A    between atoms: _406  and  _407
REMARK  158  A    between atoms: _406  and  _409
REMARK  159  A    between atoms: _409  and  _410
REMARK  160  A    between atoms: _416  and  _418
REMARK  161  A    between atoms: _418  and  _419
REMARK  162  A    between atoms: _418  and  _421
REMARK  163  A    between atoms: _421  and  _422
REMARK  164  A    between atoms: _425  and  _427
REMARK  165  A    between atoms: _427  and  _428
REMARK  166  A    between atoms: _427  and  _430
REMARK  167  A    between atoms: _430  and  _431
REMARK  168  A    between atoms: _433  and  _435
REMARK  169  A    between atoms: _435  and  _436
REMARK  170  A    between atoms: _435  and  _438
REMARK  171  A    between atoms: _438  and  _439
REMARK  172  A    between atoms: _442  and  _444
REMARK  173  A    between atoms: _444  and  _445
REMARK  174  A    between atoms: _444  and  _447
REMARK  175  A    between atoms: _447  and  _448
REMARK  176  A    between atoms: _454  and  _456
REMARK  177  A    between atoms: _456  and  _457
REMARK  178  A    between atoms: _456  and  _459
REMARK  179  A    between atoms: _459  and  _460
REMARK  180  A    between atoms: _460  and  _461
REMARK  181  A    between atoms: _461  and  _462
REMARK  182  A    between atoms: _471  and  _473
REMARK  183  A    between atoms: _473  and  _474
REMARK  184  A    between atoms: _473  and  _476
REMARK  185  A    between atoms: _476  and  _477
REMARK  186  A    between atoms: _483  and  _485
REMARK  187  A    between atoms: _485  and  _486
REMARK  188  A    between atoms: _485  and  _488
REMARK  189  A    between atoms: _488  and  _489
REMARK  190  A    between atoms: _491  and  _493
REMARK  191  A    between atoms: _493  and  _494
REMARK  192  A    between atoms: _493  and  _496
REMARK  193  A    between atoms: _496  and  _497
REMARK  194  A    between atoms: _502  and  _504
REMARK  195  A    between atoms: _504  and  _505
REMARK  196  A    between atoms: _504  and  _507
REMARK  197  A    between atoms: _507  and  _508
REMARK  198  A    between atoms: _508  and  _509
REMARK  199  A    between atoms: _512  and  _514
REMARK  200  A    between atoms: _514  and  _515
REMARK  201  A    between atoms: _517  and  _519
REMARK  202  A    between atoms: _519  and  _520
REMARK  203  A    between atoms: _519  and  _522
REMARK  204  A    between atoms: _522  and  _523
REMARK  205  A    between atoms: _525  and  _527
REMARK  206  A    between atoms: _527  and  _528
REMARK  207  A    between atoms: _527  and  _530
REMARK  208  A    between atoms: _530  and  _531
REMARK  209  A    between atoms: _537  and  _539
REMARK  210  A    between atoms: _539  and  _540
REMARK  211  A    between atoms: _539  and  _542
REMARK  212  A    between atoms: _542  and  _543
REMARK  213  A    between atoms: _549  and  _551
REMARK  214  A    between atoms: _551  and  _552
REMARK  215  A    between atoms: _551  and  _554
REMARK  216  A    between atoms: _554  and  _555
REMARK  217  A    between atoms: _558  and  _560
REMARK  218  A    between atoms: _560  and  _561
REMARK  219  A    between atoms: _560  and  _563
REMARK  220  A    between atoms: _563  and  _564
REMARK  221  A    between atoms: _567  and  _569
REMARK  222  A    between atoms: _569  and  _570
REMARK  223  A    between atoms: _569  and  _572
REMARK  224  A    between atoms: _572  and  _573
REMARK  225  A    between atoms: _578  and  _579
REMARK  226  A    between atoms: _581  and  _583
REMARK  227  A    between atoms: _583  and  _584
REMARK  228  A    between atoms: _586  and  _588
REMARK  229  A    between atoms: _588  and  _589
REMARK  230  A    between atoms: _592  and  _594
REMARK  231  A    between atoms: _594  and  _595
REMARK  232  A    between atoms: _594  and  _597
REMARK  233  A    between atoms: _597  and  _598
REMARK  234  A    between atoms: _601  and  _603
REMARK  235  A    between atoms: _603  and  _604
REMARK  236  A    between atoms: _603  and  _606
REMARK  237  A    between atoms: _606  and  _607
REMARK  238  A    between atoms: _609  and  _611
REMARK  239  A    between atoms: _611  and  _612
REMARK  240  A    between atoms: _611  and  _614
REMARK  241  A    between atoms: _617  and  _619
REMARK  242  A    between atoms: _619  and  _620
REMARK  243  A    between atoms: _619  and  _622
REMARK  244  A    between atoms: _622  and  _623
REMARK  245  A    between atoms: _628  and  _630
REMARK  246  A    between atoms: _630  and  _631
REMARK  247  A    between atoms: _630  and  _633
REMARK  248  A    between atoms: _633  and  _634
REMARK  249  A    between atoms: _644  and  _646
REMARK  250  A    between atoms: _646  and  _647
REMARK  251  A    between atoms: _646  and  _649
REMARK  252  A    between atoms: _649  and  _650
REMARK  253  A    between atoms: _650  and  _651
REMARK  254  A    between atoms: _653  and  _655
REMARK  255  A    between atoms: _655  and  _656
REMARK  256  A    between atoms: _655  and  _658
REMARK  257  A    between atoms: _658  and  _659
REMARK  258  A    between atoms: _662  and  _664
REMARK  259  A    between atoms: _664  and  _665
REMARK  260  A    between atoms: _664  and  _667
REMARK  261  A    between atoms: _667  and  _668
REMARK  262  A    between atoms: _673  and  _675
REMARK  263  A    between atoms: _675  and  _676
REMARK  264  A    between atoms: _678  and  _680
REMARK  265  A    between atoms: _680  and  _681
REMARK  266  A    between atoms: _680  and  _683
REMARK  267  A    between atoms: _683  and  _684
REMARK  268  A    between atoms: _689  and  _690
REMARK  269  A    between atoms: _692  and  _694
REMARK  270  A    between atoms: _694  and  _695
REMARK  271  A    between atoms: _694  and  _697
REMARK  272  A    between atoms: _697  and  _698
REMARK  273  A    between atoms: _698  and  _699
REMARK  274  A    between atoms: _702  and  _704
REMARK  275  A    between atoms: _704  and  _705
REMARK  276  A    between atoms: _704  and  _707
REMARK  277  A    between atoms: _707  and  _708
REMARK                            x       y       z     vdW  Elec       q    Type
REMARK                         _______ _______ _______ _____ _____    ______ ____
ROOT
ATOM      1  CA  LEU A   1      -0.774  50.448  69.974  0.00  0.00    +0.133 C 
ENDROOT
BRANCH   1   2
ATOM      2  N   LEU A   1      -2.199  50.652  70.295  0.00  0.00    -0.239 NA
ATOM      3  H   LEU A   1      -2.491  51.489  70.839  0.00  0.00    +0.142 HD
ENDBRANCH   1   2
BRANCH   1   4
ATOM      4  C   LEU A   1      -0.415  49.122  70.592  0.00  0.00    +0.224 C 
ATOM      5  O   LEU A   1      -0.833  48.832  71.701  0.00  0.00    -0.287 OA
ENDBRANCH   1   4
BRANCH   1   6
ATOM      6  CB  LEU A   1       0.129  51.561  70.581  0.00  0.00    +0.025 C 
BRANCH   6   7
ATOM      7  CG  LEU A   1      -0.049  52.870  69.735  0.00  0.00    +0.002 C 
ATOM      8  CD2 LEU A   1       0.741  53.989  70.355  0.00  0.00    +0.000 C 
ATOM      9  CD1 LEU A   1       0.395  52.624  68.264  0.00  0.00    +0.000 C 
ENDBRANCH   6   7
ENDBRANCH   1   6
TORSDOF 4
REMARK  Name = ../refined-set-2016/1h22/1h22_pocket.pdb
REMARK  277 active torsions:
REMARK  status: ('A' for Active; 'I' for Inactive)
REMARK    1  A    between atoms: _1  and  _3
REMARK    2  A    between atoms: _3  and  _4
REMARK    3  A    between atoms: _3  and  _6
REMARK    4  A    between atoms: _6  and  _7
REMARK    5  A    between atoms: _7  and  _8
REMARK    6  A    between atoms: _13  and  _15
REMARK    7  A    between atoms: _15  and  _16
REMARK    8  A    between atoms: _15  and  _18
REMARK    9  A    between atoms: _18  and  _19
REMARK   10  A    between atoms: _24  and  _25
REMARK   11  A    between atoms: _27  and  _29
REMARK   12  A    between atoms: _29  and  _30
REMARK   13  A    between atoms: _29  and  _32
REMARK   14  A    between atoms: _35  and  _37
REMARK   15  A    between atoms: _37  and  _38
REMARK   16  A    between atoms: _37  and  _40
REMARK   17  A    between atoms: _40  and  _41
REMARK   18  A    between atoms: _44  and  _46
REMARK   19  A    between atoms: _46  and  _47
REMARK   20  A    between atoms: _46  and  _49
REMARK   21  A    between atoms: _49  and  _50
REMARK   22  A    between atoms: _50  and  _51
REMARK   23  A    between atoms: _54  and  _56
REMARK   24  A    between atoms: _56  and  _57
REMARK   25  A    between atoms: _56  and  _59
REMARK   26  A    between atoms: _59  and  _60
REMARK   27  A    between atoms: _60  and  _61
REMARK   28  A    between atoms: _66  and  _68
REMARK   29  A    between atoms: _68  and  _69
REMARK   30  A    between atoms: _68  and  _71
REMARK   31  A    between atoms: _71  and  _72
REMARK   32  A    between atoms: _78  and  _80
REMARK   33  A    between atoms: _80  and  _81
REMARK   34  A    between atoms: _83  and  _85
REMARK   35  A    between atoms: _85  and  _86
REMARK   36  A    between atoms: _85  and  _88
REMARK   37  A    between atoms: _88  and  _89
REMARK   38  A    between atoms: _91  and  _93
REMARK   39  A    between atoms: _93  and  _94
REMARK   40  A    between atoms: _93  and  _96
REMARK   41  A    between atoms: _96  and  _97
REMARK   42  A    between atoms: _97  and  _98
REMARK   43  A    between atoms: _100  and  _102
REMARK   44  A    between atoms: _102  and  _103
REMARK   45  A    between atoms: _102  and  _105
REMARK   46  A    between atoms: _105  and  _106
REMARK   47  A    between atoms: _116  and  _118
REMARK   48  A    between atoms: _118  and  _119
REMARK   49  A    between atoms: _118  and  _121
REMARK   50  A    between atoms: _121  and  _122
REMARK   51  A    between atoms: _128  and  _129
REMARK   52  A    between atoms: _134  and  _136
REMARK   53  A    between atoms: _136  and  _137
REMARK   54  A    between atoms: _136  and  _139
REMARK   55  A    between atoms: _139  and  _140
REMARK   56  A    between atoms: _150  and  _152
REMARK   57  A    between atoms: _152  and  _153
REMARK   58  A    between atoms: _152  and  _155
REMARK   59  A    between atoms: _155  and  _156
REMARK   60  A    between atoms: _159  and  _161
REMARK   61  A    between atoms: _161  and  _162
REMARK   62  A    between atoms: _161  and  _164
REMARK   63  A    between atoms: _164  and  _165
REMARK   64  A    between atoms: _170  and  _171
REMARK   65  A    between atoms: _173  and  _175
REMARK   66  A    between atoms: _175  and  _176
REMARK   67  A    between atoms: _178  and  _180
REMARK   68  A    between atoms: _180  and  _181
REMARK   69  A    between atoms: _183  and  _185
REMARK   70  A    between atoms: _185  and  _186
REMARK   71  A    between atoms: _188  and  _190
REMARK   72  A    between atoms: _190  and  _191
REMARK   73  A    between atoms: _190  and  _193
REMARK   74  A    between atoms: _193  and  _194
REMARK   75  A    between atoms: _200  and  _202
REMARK   76  A    between atoms: _202  and  _203
REMARK   77  A    between atoms: _202  and  _205
REMARK   78  A    between atoms: _205  and  _206
REMARK   79  A    between atoms: _211  and  _212
REMARK   80  A    between atoms: _214  and  _216
REMARK   81  A    between atoms: _216  and  _217
REMARK   82  A    between atoms: _216  and  _219
REMARK   83  A    between atoms: _219  and  _220
REMARK   84  A    between atoms: _222  and  _224
REMARK   85  A    between atoms: _224  and  _225
REMARK   86  A    between atoms: _227  and  _229
REMARK   87  A    between atoms: _229  and  _230
REMARK   88  A    between atoms: _229  and  _232
REMARK   89  A    between atoms: _232  and  _233
REMARK   90  A    between atoms: _235  and  _237
REMARK   91  A    between atoms: _237  and  _238
REMARK   92  A    between atoms: _237  and  _240
REMARK   93  A    between atoms: _240  and  _241
REMARK   94  A    between atoms: _243  and  _245
REMARK   95  A    between atoms: _245  and  _246
REMARK   96  A    between atoms: _245  and  _248
REMARK   97  A    between atoms: _248  and  _249
REMARK   98  A    between atoms: _252  and  _254
REMARK   99  A    between atoms: _254  and  _255
REMARK  100  A    between atoms: _254  and  _257
REMARK  101  A    between atoms: _257  and  _258
REMARK  102  A    between atoms: _261  and  _263
REMARK  103  A    between atoms: _263  and  _264
REMARK  104  A    between atoms: _263  and  _266
REMARK  105  A    between atoms: _269  and  _271
REMARK  106  A    between atoms: _271  and  _272
REMARK  107  A    between atoms: _271  and  _274
REMARK  108  A    between atoms: _274  and  _275
REMARK  109  A    between atoms: _280  and  _281
REMARK  110  A    between atoms: _283  and  _285
REMARK  111  A    between atoms: _285  and  _286
REMARK  112  A    between atoms: _285  and  _288
REMARK  113  A    between atoms: _288  and  _289
REMARK  114  A    between atoms: _294  and  _295
REMARK  115  A    between atoms: _297  and  _299
REMARK  116  A    between atoms: _299  and  _300
REMARK  117  A    between atoms: _299  and  _302
REMARK  118  A    between atoms: _305  and  _307
REMARK  119  A    between atoms: _307  and  _308
REMARK  120  A    between atoms: _307  and  _310
REMARK  121  A    between atoms: _310  and  _311
REMARK  122  A    between atoms: _311  and  _312
REMARK  123  A    between atoms: _315  and  _317
REMARK  124  A    between atoms: _317  and  _318
REMARK  125  A    between atoms: _317  and  _320
REMARK  126  A    between atoms: _320  and  _321
REMARK  127  A    between atoms: _323  and  _325
REMARK  128  A    between atoms: _325  and  _326
REMARK  129  A    between atoms: _329  and  _331
REMARK  130  A    between atoms: _331  and  _332
REMARK  131  A    between atoms: _334  and  _336
REMARK  132  A    between atoms: _336  and  _337
REMARK  133  A    between atoms: _336  and  _339
REMARK  134  A    between atoms: _339  and  _340
REMARK  135  A    between atoms: _342  and  _344
REMARK  136  A    between atoms: _344  and  _345
REMARK  137  A    between atoms: _344  and  _347
REMARK  138  A    between atoms: _347  and  _348
REMARK  139  A    between atoms: _358  and  _360
REMARK  140  A    between atoms: _360  and  _361
REMARK  141  A    between atoms: _360  and  _363
REMARK  142  A    between atoms: _363  and  _364
REMARK  143  A    between atoms: _364  and  _365
REMARK  144  A    between atoms: _368  and  _370
REMARK  145  A    between atoms: _370  and  _371
REMARK  146  A    between atoms: _370  and  _373
REMARK  147  A    between atoms: _373  and  _374
REMARK  148  A    between atoms: _384  and  _386
REMARK  149  A    between atoms: _386  and  _387
REMARK  150  A    between atoms: _386  and  _389
REMARK  151  A    between atoms: _389  and  _390
REMARK  152  A    between atoms: _395  and  _397
REMARK  153  A    between atoms: _397  and  _398
REMARK  154  A    between atoms: _397  and  _400
REMARK  155  A    between atoms: _400  and  _401
REMARK  156  A    between atoms: _404  and  _406
REMARK  157  A    between atoms: _406  and  _407
REMARK  158  A    between atoms: _406  and  _409
REMARK  159  A    between atoms: _409  and  _410
REMARK  160  A    between atoms: _416  and  _418
REMARK  161  A    between atoms: _418  and  _419
REMARK  162  A    between atoms: _418  and  _421
REMARK  163  A    between atoms: _421  and  _422
REMARK  164  A    between atoms: _425  and  _427
REMARK  165  A    between atoms: _427  and  _428
REMARK  166  A    between atoms: _427  and  _430
REMARK  167  A    between atoms: _430  and  _431
REMARK  168  A    between atoms: _433  and  _435
REMARK  169  A    between atoms: _435  and  _436
REMARK  170  A    between atoms: _435  and  _438
REMARK  171  A    between atoms: _438  and  _439
REMARK  172  A    between atoms: _442  and  _444
REMARK  173  A    between atoms: _444  and  _445
REMARK  174  A    between atoms: _444  and  _447
REMARK  175  A    between atoms: _447  and  _448
REMARK  176  A    between atoms: _454  and  _456
REMARK  177  A    between atoms: _456  and  _457
REMARK  178  A    between atoms: _456  and  _459
REMARK  179  A    between atoms: _459  and  _460
REMARK  180  A    between atoms: _460  and  _461
REMARK  181  A    between atoms: _461  and  _462
REMARK  182  A    between atoms: _471  and  _473
REMARK  183  A    between atoms: _473  and  _474
REMARK  184  A    between atoms: _473  and  _476
REMARK  185  A    between atoms: _476  and  _477
REMARK  186  A    between atoms: _483  and  _485
REMARK  187  A    between atoms: _485  and  _486
REMARK  188  A    between atoms: _485  and  _488
REMARK  189  A    between atoms: _488  and  _489
REMARK  190  A    between atoms: _491  and  _493
REMARK  191  A    between atoms: _493  and  _494
REMARK  192  A    between atoms: _493  and  _496
REMARK  193  A    between atoms: _496  and  _497
REMARK  194  A    between atoms: _502  and  _504
REMARK  195  A    between atoms: _504  and  _505
REMARK  196  A    between atoms: _504  and  _507
REMARK  197  A    between atoms: _507  and  _508
REMARK  198  A    between atoms: _508  and  _509
REMARK  199  A    between atoms: _512  and  _514
REMARK  200  A    between atoms: _514  and  _515
REMARK  201  A    between atoms: _517  and  _519
REMARK  202  A    between atoms: _519  and  _520
REMARK  203  A    between atoms: _519  and  _522
REMARK  204  A    between atoms: _522  and  _523
REMARK  205  A    between atoms: _525  and  _527
REMARK  206  A    between atoms: _527  and  _528
REMARK  207  A    between atoms: _527  and  _530
REMARK  208  A    between atoms: _530  and  _531
REMARK  209  A    between atoms: _537  and  _539
REMARK  210  A    between atoms: _539  and  _540
REMARK  211  A    between atoms: _539  and  _542
REMARK  212  A    between atoms: _542  and  _543
REMARK  213  A    between atoms: _549  and  _551
REMARK  214  A    between atoms: _551  and  _552
REMARK  215  A    between atoms: _551  and  _554
REMARK  216  A    between atoms: _554  and  _555
REMARK  217  A    between atoms: _558  and  _560
REMARK  218  A    between atoms: _560  and  _561
REMARK  219  A    between atoms: _560  and  _563
REMARK  220  A    between atoms: _563  and  _564
REMARK  221  A    between atoms: _567  and  _569
REMARK  222  A    between atoms: _569  and  _570
REMARK  223  A    between atoms: _569  and  _572
REMARK  224  A    between atoms: _572  and  _573
REMARK  225  A    between atoms: _578  and  _579
REMARK  226  A    between atoms: _581  and  _583
REMARK  227  A    between atoms: _583  and  _584
REMARK  228  A    between atoms: _586  and  _588
REMARK  229  A    between atoms: _588  and  _589
REMARK  230  A    between atoms: _592  and  _594
REMARK  231  A    between atoms: _594  and  _595
REMARK  232  A    between atoms: _594  and  _597
REMARK  233  A    between atoms: _597  and  _598
REMARK  234  A    between atoms: _601  and  _603
REMARK  235  A    between atoms: _603  and  _604
REMARK  236  A    between atoms: _603  and  _606
REMARK  237  A    between atoms: _606  and  _607
REMARK  238  A    between atoms: _609  and  _611
REMARK  239  A    between atoms: _611  and  _612
REMARK  240  A    between atoms: _611  and  _614
REMARK  241  A    between atoms: _617  and  _619
REMARK  242  A    between atoms: _619  and  _620
REMARK  243  A    between atoms: _619  and  _622
REMARK  244  A    between atoms: _622  and  _623
REMARK  245  A    between atoms: _628  and  _630
REMARK  246  A    between atoms: _630  and  _631
REMARK  247  A    between atoms: _630  and  _633
REMARK  248  A    between atoms: _633  and  _634
REMARK  249  A    between atoms: _644  and  _646
REMARK  250  A    between atoms: _646  and  _647
REMARK  251  A    between atoms: _646  and  _649
REMARK  252  A    between atoms: _649  and  _650
REMARK  253  A    between atoms: _650  and  _651
REMARK  254  A    between atoms: _653  and  _655
REMARK  255  A    between atoms: _655  and  _656
REMARK  256  A    between atoms: _655  and  _658
REMARK  257  A    between atoms: _658  and  _659
REMARK  258  A    between atoms: _662  and  _664
REMARK  259  A    between atoms: _664  and  _665
REMARK  260  A    between atoms: _664  and  _667
REMARK  261  A    between atoms: _667  and  _668
REMARK  262  A    between atoms: _673  and  _675
REMARK  263  A    between atoms: _675  and  _676
REMARK  264  A    between atoms: _678  and  _680
REMARK  265  A    between atoms: _680  and  _681
REMARK  266  A    between atoms: _680  and  _683
REMARK  267  A    between atoms: _683  and  _684
REMARK  268  A    between atoms: _689  and  _690
REMARK  269  A    between atoms: _692  and  _694
REMARK  270  A    between atoms: _694  and  _695
REMARK  271  A    between atoms: _694  and  _697
REMARK  272  A    between atoms: _697  and  _698
REMARK  273  A    between atoms: _698  and  _699
REMARK  274  A    between atoms: _702  and  _704
REMARK  275  A    between atoms: _704  and  _705
REMARK  276  A    between atoms: _704  and  _707
REMARK  277  A    between atoms: _707  and  _708
REMARK                            x       y       z     vdW  Elec       q    Type
REMARK                         _______ _______ _______ _____ _____    ______ ____
ROOT
ATOM      1  CA  PHE A   5       6.984  57.730  67.690  0.00  0.00    +0.153 C 
ENDROOT
BRANCH   1   2
ATOM      2  C   PHE A   5       6.321  56.527  66.969  0.00  0.00    +0.241 C 
ATOM      3  N   ARG A   6       5.150  56.148  67.455  0.00  0.00    -0.297 N 
ATOM      4  H   ARG A   6       4.779  56.635  68.295  0.00  0.00    +0.150 HD
ATOM      5  O   PHE A   5       6.877  55.966  66.010  0.00  0.00    -0.273 OA
BRANCH   3   6
ATOM      6  CA  ARG A   6       4.337  55.048  66.847  0.00  0.00    +0.149 C 
BRANCH   6   7
ATOM      7  C   ARG A   6       2.863  55.567  66.885  0.00  0.00    +0.241 C 
ATOM      8  O   ARG A   6       2.390  56.153  67.889  0.00  0.00    -0.273 OA
ATOM      9  N   PHE A   7       2.191  55.396  65.754  0.00  0.00    -0.297 N 
ATOM     10  H   PHE A   7       2.659  54.894  64.973  0.00  0.00    +0.150 HD
BRANCH   9  11
ATOM     11  CA  PHE A   7       0.832  55.875  65.551  0.00  0.00    +0.153 C 
BRANCH  11  12
ATOM     12  C   PHE A   7      -0.091  54.681  65.192  0.00  0.00    +0.241 C 
ATOM     13  N   SER A   8      -1.302  54.732  65.695  0.00  0.00    -0.296 N 
ATOM     14  H   SER A   8      -1.605  55.579  66.217  0.00  0.00    +0.150 HD
ATOM     15  O   PHE A   7       0.288  53.740  64.509  0.00  0.00    -0.273 OA
BRANCH  13  16
ATOM     16  CA  SER A   8      -2.233  53.615  65.532  0.00  0.00    +0.166 C 
BRANCH  16  17
ATOM     17  C   SER A   8      -2.649  53.209  64.132  0.00  0.00    +0.229 C 
ATOM     18  O   SER A   8      -2.437  52.068  63.723  0.00  0.00    -0.286 OA
ENDBRANCH  16  17
BRANCH  16  19
ATOM     19  CB  SER A   8      -3.484  53.926  66.338  0.00  0.00    +0.165 C 
BRANCH  19  20
ATOM     20  OG  SER A   8      -3.122  53.912  67.690  0.00  0.00    -0.380 OA
ATOM     21  H   SER A   8      -3.917  54.112  68.245  0.00  0.00    +0.211 HD
ENDBRANCH  19  20
ENDBRANCH  16  19
ENDBRANCH  13  16
ENDBRANCH  11  12
BRANCH  11  22
ATOM     22  CB  PHE A   7       0.891  56.972  64.460  0.00  0.00    +0.055 C 
BRANCH  22  23
ATOM     23  CG  PHE A   7       2.049  57.962  64.671  0.00  0.00    -0.020 A 
ATOM     24  CD2 PHE A   7       2.135  58.713  65.825  0.00  0.00    -0.004 A 
ATOM     25  CE2 PHE A   7       3.269  59.571  66.080  0.00  0.00    -0.000 A 
ATOM     26  CZ  PHE A   7       4.298  59.649  65.145  0.00  0.00    -0.000 A 
ATOM     27  CE1 PHE A   7       4.201  58.887  63.977  0.00  0.00    -0.000 A 
ATOM     28  CD1 PHE A   7       3.078  58.052  63.753  0.00  0.00    -0.004 A 
ENDBRANCH  22  23
ENDBRANCH  11  22
ENDBRANCH   9  11
ENDBRANCH   6   7
BRANCH   6  29
ATOM     29  CB  ARG A   6       4.471  53.733  67.636  0.00  0.00    +0.033 C 
BRANCH  29  30
ATOM     30  CG  ARG A   6       5.808  53.054  67.518  0.00  0.00    +0.045 C 
BRANCH  30  31
ATOM     31  CD  ARG A   6       6.181  52.715  66.079  0.00  0.00    +0.174 C 
BRANCH  31  32
ATOM     32  NE  ARG A   6       7.472  52.017  66.015  0.00  0.00    -0.265 N 
ATOM     33  HE  ARG A   6       7.449  50.979  66.069  0.00  0.00    +0.259 HD
ATOM     34  CZ  ARG A   6       8.678  52.591  65.894  0.00  0.00    +0.342 C 
ATOM     35  NH2 ARG A   6       9.788  51.832  65.818  0.00  0.00    -0.292 N 
ATOM     36 HH21 ARG A   6       9.713  50.795  65.853  0.00  0.00    +0.255 HD
ATOM     37 HH22 ARG A   6      10.721  52.283  65.724  0.00  0.00    +0.255 HD
ATOM     38  NH1 ARG A   6       8.793  53.915  65.818  0.00  0.00    -0.292 N 
ATOM     39 HH11 ARG A   6       7.943  54.514  65.852  0.00  0.00    +0.255 HD
ATOM     40 HH12 ARG A   6       9.733  54.351  65.724  0.00  0.00    +0.255 HD
ENDBRANCH  31  32
ENDBRANCH  30  31
ENDBRANCH  29  30
ENDBRANCH   6  29
ENDBRANCH   3   6
ENDBRANCH   1   2
BRANCH   1  43
ATOM     41  C   ILE A   4       7.328  56.601  69.817  0.00  0.00    +0.241 C 
ATOM     42  O   ILE A   4       7.916  55.647  69.294  0.00  0.00    -0.273 OA
ATOM     43  N   PHE A   5       6.851  57.625  69.129  0.00  0.00    -0.297 N 
ATOM     44  H   PHE A   5       6.361  58.386  69.642  0.00  0.00    +0.150 HD
BRANCH  41  45
ATOM     45  CA  ILE A   4       7.099  56.641  71.320  0.00  0.00    +0.149 C 
BRANCH  45  48
ATOM     46  C   SER A   3       6.117  54.807  72.537  0.00  0.00    +0.243 C 
ATOM     47  O   SER A   3       5.238  55.494  73.004  0.00  0.00    -0.273 OA
ATOM     48  N   ILE A   4       7.045  55.260  71.721  0.00  0.00    -0.297 N 
ATOM     49  H   ILE A   4       7.761  54.600  71.355  0.00  0.00    +0.150 HD
BRANCH  46  50
ATOM     50  CA  SER A   3       6.181  53.325  72.789  0.00  0.00    +0.178 C 
BRANCH  50  53
ATOM     51  C   ASP A   2       5.458  51.652  74.275  0.00  0.00    +0.241 C 
ATOM     52  O   ASP A   2       6.502  51.085  73.996  0.00  0.00    -0.273 OA
ATOM     53  N   SER A   3       5.219  52.858  73.781  0.00  0.00    -0.295 N 
ATOM     54  H   SER A   3       4.404  53.431  74.079  0.00  0.00    +0.150 HD
BRANCH  51  55
ATOM     55  CA  ASP A   2       4.425  50.978  75.209  0.00  0.00    +0.160 C 
BRANCH  55  57
ATOM     56  C   PHE A   1       3.596  49.670  73.305  0.00  0.00    +0.239 C 
ATOM     57  N   ASP A   2       4.215  49.733  74.474  0.00  0.00    -0.297 N 
ATOM     58  H   ASP A   2       4.571  48.849  74.891  0.00  0.00    +0.150 HD
ATOM     59  O   PHE A   1       3.127  50.649  72.717  0.00  0.00    -0.274 OA
BRANCH  56  60
ATOM     60  CA  PHE A   1       3.576  48.301  72.665  0.00  0.00    +0.149 C 
BRANCH  60  61
ATOM     61  N   PHE A   1       2.547  48.201  71.635  0.00  0.00    -0.238 NA
ATOM     62  H   PHE A   1       2.443  48.943  70.914  0.00  0.00    +0.142 HD
ENDBRANCH  60  61
BRANCH  60  63
ATOM     63  CB  PHE A   1       4.956  48.108  72.068  0.00  0.00    +0.053 C 
BRANCH  63  64
ATOM     64  CG  PHE A   1       5.081  46.915  71.177  0.00  0.00    -0.020 A 
ATOM     65  CD2 PHE A   1       5.093  45.628  71.718  0.00  0.00    -0.004 A 
ATOM     66  CE2 PHE A   1       5.255  44.507  70.890  0.00  0.00    -0.000 A 
ATOM     67  CZ  PHE A   1       5.400  44.688  69.501  0.00  0.00    -0.000 A 
ATOM     68  CE1 PHE A   1       5.380  45.994  68.957  0.00  0.00    -0.000 A 
ATOM     69  CD1 PHE A   1       5.222  47.085  69.797  0.00  0.00    -0.004 A 
ENDBRANCH  63  64
ENDBRANCH  60  63
ENDBRANCH  56  60
ENDBRANCH  55  57
BRANCH  55  70
ATOM     70  CB  ASP A   2       5.078  50.653  76.554  0.00  0.00    +0.143 C 
BRANCH  70  71
ATOM     71  CG  ASP A   2       5.168  51.884  77.446  0.00  0.00    +0.367 C 
ATOM     72  OD2 ASP A   2       5.632  51.773  78.605  0.00  0.00    -0.246 OA
ATOM     73  OD1 ASP A   2       4.749  52.951  76.947  0.00  0.00    -0.246 OA
ENDBRANCH  70  71
ENDBRANCH  55  70
ENDBRANCH  51  55
ENDBRANCH  50  53
BRANCH  50  74
ATOM     74  CB  SER A   3       5.879  52.632  71.431  0.00  0.00    +0.166 C 
BRANCH  74  75
ATOM     75  OG  SER A   3       4.605  53.097  70.948  0.00  0.00    -0.380 OA
ATOM     76  H   SER A   3       4.638  54.079  70.825  0.00  0.00    +0.211 HD
ENDBRANCH  74  75
ENDBRANCH  50  74
ENDBRANCH  46  50
ENDBRANCH  45  48
BRANCH  45  77
ATOM     77  CB  ILE A   4       8.205  57.257  72.198  0.00  0.00    +0.027 C 
ATOM     78  CG2 ILE A   4       9.516  57.442  71.579  0.00  0.00    +0.002 C 
BRANCH  77  79
ATOM     79  CG1 ILE A   4       7.577  58.346  72.967  0.00  0.00    +0.002 C 
ATOM     80  CD1 ILE A   4       7.595  57.854  74.282  0.00  0.00    +0.000 C 
ENDBRANCH  77  79
ENDBRANCH  45  77
ENDBRANCH  41  45
ENDBRANCH   1  43
BRANCH   1  81
ATOM     81  CB  PHE A   5       8.440  57.850  67.252  0.00  0.00    +0.055 C 
BRANCH  81  82
ATOM     82  CG  PHE A   5       8.654  58.897  66.159  0.00  0.00    -0.020 A 
ATOM     83  CD2 PHE A   5       9.663  59.864  66.273  0.00  0.00    -0.004 A 
ATOM     84  CE2 PHE A   5       9.893  60.763  65.219  0.00  0.00    -0.000 A 
ATOM     85  CZ  PHE A   5       9.108  60.702  64.058  0.00  0.00    -0.000 A 
ATOM     86  CE1 PHE A   5       8.090  59.746  63.953  0.00  0.00    -0.000 A 
ATOM     87  CD1 PHE A   5       7.877  58.874  64.978  0.00  0.00    -0.004 A 
ENDBRANCH  81  82
ENDBRANCH   1  81
TORSDOF 34
REMARK  Name = ../refined-set-2016/1h22/1h22_pocket.pdb
REMARK  277 active torsions:
REMARK  status: ('A' for Active; 'I' for Inactive)
REMARK    1  A    between atoms: _1  and  _3
REMARK    2  A    between atoms: _3  and  _4
REMARK    3  A    between atoms: _3  and  _6
REMARK    4  A    between atoms: _6  and  _7
REMARK    5  A    between atoms: _7  and  _8
REMARK    6  A    between atoms: _13  and  _15
REMARK    7  A    between atoms: _15  and  _16
REMARK    8  A    between atoms: _15  and  _18
REMARK    9  A    between atoms: _18  and  _19
REMARK   10  A    between atoms: _24  and  _25
REMARK   11  A    between atoms: _27  and  _29
REMARK   12  A    between atoms: _29  and  _30
REMARK   13  A    between atoms: _29  and  _32
REMARK   14  A    between atoms: _35  and  _37
REMARK   15  A    between atoms: _37  and  _38
REMARK   16  A    between atoms: _37  and  _40
REMARK   17  A    between atoms: _40  and  _41
REMARK   18  A    between atoms: _44  and  _46
REMARK   19  A    between atoms: _46  and  _47
REMARK   20  A    between atoms: _46  and  _49
REMARK   21  A    between atoms: _49  and  _50
REMARK   22  A    between atoms: _50  and  _51
REMARK   23  A    between atoms: _54  and  _56
REMARK   24  A    between atoms: _56  and  _57
REMARK   25  A    between atoms: _56  and  _59
REMARK   26  A    between atoms: _59  and  _60
REMARK   27  A    between atoms: _60  and  _61
REMARK   28  A    between atoms: _66  and  _68
REMARK   29  A    between atoms: _68  and  _69
REMARK   30  A    between atoms: _68  and  _71
REMARK   31  A    between atoms: _71  and  _72
REMARK   32  A    between atoms: _78  and  _80
REMARK   33  A    between atoms: _80  and  _81
REMARK   34  A    between atoms: _83  and  _85
REMARK   35  A    between atoms: _85  and  _86
REMARK   36  A    between atoms: _85  and  _88
REMARK   37  A    between atoms: _88  and  _89
REMARK   38  A    between atoms: _91  and  _93
REMARK   39  A    between atoms: _93  and  _94
REMARK   40  A    between atoms: _93  and  _96
REMARK   41  A    between atoms: _96  and  _97
REMARK   42  A    between atoms: _97  and  _98
REMARK   43  A    between atoms: _100  and  _102
REMARK   44  A    between atoms: _102  and  _103
REMARK   45  A    between atoms: _102  and  _105
REMARK   46  A    between atoms: _105  and  _106
REMARK   47  A    between atoms: _116  and  _118
REMARK   48  A    between atoms: _118  and  _119
REMARK   49  A    between atoms: _118  and  _121
REMARK   50  A    between atoms: _121  and  _122
REMARK   51  A    between atoms: _128  and  _129
REMARK   52  A    between atoms: _134  and  _136
REMARK   53  A    between atoms: _136  and  _137
REMARK   54  A    between atoms: _136  and  _139
REMARK   55  A    between atoms: _139  and  _140
REMARK   56  A    between atoms: _150  and  _152
REMARK   57  A    between atoms: _152  and  _153
REMARK   58  A    between atoms: _152  and  _155
REMARK   59  A    between atoms: _155  and  _156
REMARK   60  A    between atoms: _159  and  _161
REMARK   61  A    between atoms: _161  and  _162
REMARK   62  A    between atoms: _161  and  _164
REMARK   63  A    between atoms: _164  and  _165
REMARK   64  A    between atoms: _170  and  _171
REMARK   65  A    between atoms: _173  and  _175
REMARK   66  A    between atoms: _175  and  _176
REMARK   67  A    between atoms: _178  and  _180
REMARK   68  A    between atoms: _180  and  _181
REMARK   69  A    between atoms: _183  and  _185
REMARK   70  A    between atoms: _185  and  _186
REMARK   71  A    between atoms: _188  and  _190
REMARK   72  A    between atoms: _190  and  _191
REMARK   73  A    between atoms: _190  and  _193
REMARK   74  A    between atoms: _193  and  _194
REMARK   75  A    between atoms: _200  and  _202
REMARK   76  A    between atoms: _202  and  _203
REMARK   77  A    between atoms: _202  and  _205
REMARK   78  A    between atoms: _205  and  _206
REMARK   79  A    between atoms: _211  and  _212
REMARK   80  A    between atoms: _214  and  _216
REMARK   81  A    between atoms: _216  and  _217
REMARK   82  A    between atoms: _216  and  _219
REMARK   83  A    between atoms: _219  and  _220
REMARK   84  A    between atoms: _222  and  _224
REMARK   85  A    between atoms: _224  and  _225
REMARK   86  A    between atoms: _227  and  _229
REMARK   87  A    between atoms: _229  and  _230
REMARK   88  A    between atoms: _229  and  _232
REMARK   89  A    between atoms: _232  and  _233
REMARK   90  A    between atoms: _235  and  _237
REMARK   91  A    between atoms: _237  and  _238
REMARK   92  A    between atoms: _237  and  _240
REMARK   93  A    between atoms: _240  and  _241
REMARK   94  A    between atoms: _243  and  _245
REMARK   95  A    between atoms: _245  and  _246
REMARK   96  A    between atoms: _245  and  _248
REMARK   97  A    between atoms: _248  and  _249
REMARK   98  A    between atoms: _252  and  _254
REMARK   99  A    between atoms: _254  and  _255
REMARK  100  A    between atoms: _254  and  _257
REMARK  101  A    between atoms: _257  and  _258
REMARK  102  A    between atoms: _261  and  _263
REMARK  103  A    between atoms: _263  and  _264
REMARK  104  A    between atoms: _263  and  _266
REMARK  105  A    between atoms: _269  and  _271
REMARK  106  A    between atoms: _271  and  _272
REMARK  107  A    between atoms: _271  and  _274
REMARK  108  A    between atoms: _274  and  _275
REMARK  109  A    between atoms: _280  and  _281
REMARK  110  A    between atoms: _283  and  _285
REMARK  111  A    between atoms: _285  and  _286
REMARK  112  A    between atoms: _285  and  _288
REMARK  113  A    between atoms: _288  and  _289
REMARK  114  A    between atoms: _294  and  _295
REMARK  115  A    between atoms: _297  and  _299
REMARK  116  A    between atoms: _299  and  _300
REMARK  117  A    between atoms: _299  and  _302
REMARK  118  A    between atoms: _305  and  _307
REMARK  119  A    between atoms: _307  and  _308
REMARK  120  A    between atoms: _307  and  _310
REMARK  121  A    between atoms: _310  and  _311
REMARK  122  A    between atoms: _311  and  _312
REMARK  123  A    between atoms: _315  and  _317
REMARK  124  A    between atoms: _317  and  _318
REMARK  125  A    between atoms: _317  and  _320
REMARK  126  A    between atoms: _320  and  _321
REMARK  127  A    between atoms: _323  and  _325
REMARK  128  A    between atoms: _325  and  _326
REMARK  129  A    between atoms: _329  and  _331
REMARK  130  A    between atoms: _331  and  _332
REMARK  131  A    between atoms: _334  and  _336
REMARK  132  A    between atoms: _336  and  _337
REMARK  133  A    between atoms: _336  and  _339
REMARK  134  A    between atoms: _339  and  _340
REMARK  135  A    between atoms: _342  and  _344
REMARK  136  A    between atoms: _344  and  _345
REMARK  137  A    between atoms: _344  and  _347
REMARK  138  A    between atoms: _347  and  _348
REMARK  139  A    between atoms: _358  and  _360
REMARK  140  A    between atoms: _360  and  _361
REMARK  141  A    between atoms: _360  and  _363
REMARK  142  A    between atoms: _363  and  _364
REMARK  143  A    between atoms: _364  and  _365
REMARK  144  A    between atoms: _368  and  _370
REMARK  145  A    between atoms: _370  and  _371
REMARK  146  A    between atoms: _370  and  _373
REMARK  147  A    between atoms: _373  and  _374
REMARK  148  A    between atoms: _384  and  _386
REMARK  149  A    between atoms: _386  and  _387
REMARK  150  A    between atoms: _386  and  _389
REMARK  151  A    between atoms: _389  and  _390
REMARK  152  A    between atoms: _395  and  _397
REMARK  153  A    between atoms: _397  and  _398
REMARK  154  A    between atoms: _397  and  _400
REMARK  155  A    between atoms: _400  and  _401
REMARK  156  A    between atoms: _404  and  _406
REMARK  157  A    between atoms: _406  and  _407
REMARK  158  A    between atoms: _406  and  _409
REMARK  159  A    between atoms: _409  and  _410
REMARK  160  A    between atoms: _416  and  _418
REMARK  161  A    between atoms: _418  and  _419
REMARK  162  A    between atoms: _418  and  _421
REMARK  163  A    between atoms: _421  and  _422
REMARK  164  A    between atoms: _425  and  _427
REMARK  165  A    between atoms: _427  and  _428
REMARK  166  A    between atoms: _427  and  _430
REMARK  167  A    between atoms: _430  and  _431
REMARK  168  A    between atoms: _433  and  _435
REMARK  169  A    between atoms: _435  and  _436
REMARK  170  A    between atoms: _435  and  _438
REMARK  171  A    between atoms: _438  and  _439
REMARK  172  A    between atoms: _442  and  _444
REMARK  173  A    between atoms: _444  and  _445
REMARK  174  A    between atoms: _444  and  _447
REMARK  175  A    between atoms: _447  and  _448
REMARK  176  A    between atoms: _454  and  _456
REMARK  177  A    between atoms: _456  and  _457
REMARK  178  A    between atoms: _456  and  _459
REMARK  179  A    between atoms: _459  and  _460
REMARK  180  A    between atoms: _460  and  _461
REMARK  181  A    between atoms: _461  and  _462
REMARK  182  A    between atoms: _471  and  _473
REMARK  183  A    between atoms: _473  and  _474
REMARK  184  A    between atoms: _473  and  _476
REMARK  185  A    between atoms: _476  and  _477
REMARK  186  A    between atoms: _483  and  _485
REMARK  187  A    between atoms: _485  and  _486
REMARK  188  A    between atoms: _485  and  _488
REMARK  189  A    between atoms: _488  and  _489
REMARK  190  A    between atoms: _491  and  _493
REMARK  191  A    between atoms: _493  and  _494
REMARK  192  A    between atoms: _493  and  _496
REMARK  193  A    between atoms: _496  and  _497
REMARK  194  A    between atoms: _502  and  _504
REMARK  195  A    between atoms: _504  and  _505
REMARK  196  A    between atoms: _504  and  _507
REMARK  197  A    between atoms: _507  and  _508
REMARK  198  A    between atoms: _508  and  _509
REMARK  199  A    between atoms: _512  and  _514
REMARK  200  A    between atoms: _514  and  _515
REMARK  201  A    between atoms: _517  and  _519
REMARK  202  A    between atoms: _519  and  _520
REMARK  203  A    between atoms: _519  and  _522
REMARK  204  A    between atoms: _522  and  _523
REMARK  205  A    between atoms: _525  and  _527
REMARK  206  A    between atoms: _527  and  _528
REMARK  207  A    between atoms: _527  and  _530
REMARK  208  A    between atoms: _530  and  _531
REMARK  209  A    between atoms: _537  and  _539
REMARK  210  A    between atoms: _539  and  _540
REMARK  211  A    between atoms: _539  and  _542
REMARK  212  A    between atoms: _542  and  _543
REMARK  213  A    between atoms: _549  and  _551
REMARK  214  A    between atoms: _551  and  _552
REMARK  215  A    between atoms: _551  and  _554
REMARK  216  A    between atoms: _554  and  _555
REMARK  217  A    between atoms: _558  and  _560
REMARK  218  A    between atoms: _560  and  _561
REMARK  219  A    between atoms: _560  and  _563
REMARK  220  A    between atoms: _563  and  _564
REMARK  221  A    between atoms: _567  and  _569
REMARK  222  A    between atoms: _569  and  _570
REMARK  223  A    between atoms: _569  and  _572
REMARK  224  A    between atoms: _572  and  _573
REMARK  225  A    between atoms: _578  and  _579
REMARK  226  A    between atoms: _581  and  _583
REMARK  227  A    between atoms: _583  and  _584
REMARK  228  A    between atoms: _586  and  _588
REMARK  229  A    between atoms: _588  and  _589
REMARK  230  A    between atoms: _592  and  _594
REMARK  231  A    between atoms: _594  and  _595
REMARK  232  A    between atoms: _594  and  _597
REMARK  233  A    between atoms: _597  and  _598
REMARK  234  A    between atoms: _601  and  _603
REMARK  235  A    between atoms: _603  and  _604
REMARK  236  A    between atoms: _603  and  _606
REMARK  237  A    between atoms: _606  and  _607
REMARK  238  A    between atoms: _609  and  _611
REMARK  239  A    between atoms: _611  and  _612
REMARK  240  A    between atoms: _611  and  _614
REMARK  241  A    between atoms: _617  and  _619
REMARK  242  A    between atoms: _619  and  _620
REMARK  243  A    between atoms: _619  and  _622
REMARK  244  A    between atoms: _622  and  _623
REMARK  245  A    between atoms: _628  and  _630
REMARK  246  A    between atoms: _630  and  _631
REMARK  247  A    between atoms: _630  and  _633
REMARK  248  A    between atoms: _633  and  _634
REMARK  249  A    between atoms: _644  and  _646
REMARK  250  A    between atoms: _646  and  _647
REMARK  251  A    between atoms: _646  and  _649
REMARK  252  A    between atoms: _649  and  _650
REMARK  253  A    between atoms: _650  and  _651
REMARK  254  A    between atoms: _653  and  _655
REMARK  255  A    between atoms: _655  and  _656
REMARK  256  A    between atoms: _655  and  _658
REMARK  257  A    between atoms: _658  and  _659
REMARK  258  A    between atoms: _662  and  _664
REMARK  259  A    between atoms: _664  and  _665
REMARK  260  A    between atoms: _664  and  _667
REMARK  261  A    between atoms: _667  and  _668
REMARK  262  A    between atoms: _673  and  _675
REMARK  263  A    between atoms: _675  and  _676
REMARK  264  A    between atoms: _678  and  _680
REMARK  265  A    between atoms: _680  and  _681
REMARK  266  A    between atoms: _680  and  _683
REMARK  267  A    between atoms: _683  and  _684
REMARK  268  A    between atoms: _689  and  _690
REMARK  269  A    between atoms: _692  and  _694
REMARK  270  A    between atoms: _694  and  _695
REMARK  271  A    between atoms: _694  and  _697
REMARK  272  A    between atoms: _697  and  _698
REMARK  273  A    between atoms: _698  and  _699
REMARK  274  A    between atoms: _702  and  _704
REMARK  275  A    between atoms: _704  and  _705
REMARK  276  A    between atoms: _704  and  _707
REMARK  277  A    between atoms: _707  and  _708
REMARK                            x       y       z     vdW  Elec       q    Type
REMARK                         _______ _______ _______ _____ _____    ______ ____
ROOT
ATOM      1  CB  ASN A   1      15.260  69.012  61.523  0.00  0.00    +0.110 C 
ENDROOT
BRANCH   1   2
ATOM      2  CG  ASN A   1      14.323  69.747  60.540  0.00  0.00    +0.221 C 
ATOM      3  ND2 ASN A   1      13.205  70.267  61.069  0.00  0.00    -0.329 N 
ATOM      4 HD21 ASN A   1      13.011  70.158  62.085  0.00  0.00    +0.145 HD
ATOM      5 HD22 ASN A   1      12.532  70.779  60.463  0.00  0.00    +0.145 HD
ATOM      6  OD1 ASN A   1      14.611  69.847  59.319  0.00  0.00    -0.275 OA
ENDBRANCH   1   2
BRANCH   1   7
ATOM      7  CA  ASN A   1      16.483  68.401  60.814  0.00  0.00    +0.142 C 
BRANCH   7   8
ATOM      8  N   ASN A   1      16.087  67.336  59.886  0.00  0.00    -0.239 NA
ATOM      9  H   ASN A   1      15.399  66.619  60.193  0.00  0.00    +0.142 HD
ENDBRANCH   7   8
BRANCH   7  10
ATOM     10  C   ASN A   1      17.446  67.800  61.855  0.00  0.00    +0.225 C 
ATOM     11  O   ASN A   1      17.474  66.575  62.097  0.00  0.00    -0.287 OA
ENDBRANCH   7  10
ENDBRANCH   1   7
TORSDOF 4
REMARK  Name = ../refined-set-2016/1h22/1h22_pocket.pdb
REMARK  277 active torsions:
REMARK  status: ('A' for Active; 'I' for Inactive)
REMARK    1  A    between atoms: _1  and  _3
REMARK    2  A    between atoms: _3  and  _4
REMARK    3  A    between atoms: _3  and  _6
REMARK    4  A    between atoms: _6  and  _7
REMARK    5  A    between atoms: _7  and  _8
REMARK    6  A    between atoms: _13  and  _15
REMARK    7  A    between atoms: _15  and  _16
REMARK    8  A    between atoms: _15  and  _18
REMARK    9  A    between atoms: _18  and  _19
REMARK   10  A    between atoms: _24  and  _25
REMARK   11  A    between atoms: _27  and  _29
REMARK   12  A    between atoms: _29  and  _30
REMARK   13  A    between atoms: _29  and  _32
REMARK   14  A    between atoms: _35  and  _37
REMARK   15  A    between atoms: _37  and  _38
REMARK   16  A    between atoms: _37  and  _40
REMARK   17  A    between atoms: _40  and  _41
REMARK   18  A    between atoms: _44  and  _46
REMARK   19  A    between atoms: _46  and  _47
REMARK   20  A    between atoms: _46  and  _49
REMARK   21  A    between atoms: _49  and  _50
REMARK   22  A    between atoms: _50  and  _51
REMARK   23  A    between atoms: _54  and  _56
REMARK   24  A    between atoms: _56  and  _57
REMARK   25  A    between atoms: _56  and  _59
REMARK   26  A    between atoms: _59  and  _60
REMARK   27  A    between atoms: _60  and  _61
REMARK   28  A    between atoms: _66  and  _68
REMARK   29  A    between atoms: _68  and  _69
REMARK   30  A    between atoms: _68  and  _71
REMARK   31  A    between atoms: _71  and  _72
REMARK   32  A    between atoms: _78  and  _80
REMARK   33  A    between atoms: _80  and  _81
REMARK   34  A    between atoms: _83  and  _85
REMARK   35  A    between atoms: _85  and  _86
REMARK   36  A    between atoms: _85  and  _88
REMARK   37  A    between atoms: _88  and  _89
REMARK   38  A    between atoms: _91  and  _93
REMARK   39  A    between atoms: _93  and  _94
REMARK   40  A    between atoms: _93  and  _96
REMARK   41  A    between atoms: _96  and  _97
REMARK   42  A    between atoms: _97  and  _98
REMARK   43  A    between atoms: _100  and  _102
REMARK   44  A    between atoms: _102  and  _103
REMARK   45  A    between atoms: _102  and  _105
REMARK   46  A    between atoms: _105  and  _106
REMARK   47  A    between atoms: _116  and  _118
REMARK   48  A    between atoms: _118  and  _119
REMARK   49  A    between atoms: _118  and  _121
REMARK   50  A    between atoms: _121  and  _122
REMARK   51  A    between atoms: _128  and  _129
REMARK   52  A    between atoms: _134  and  _136
REMARK   53  A    between atoms: _136  and  _137
REMARK   54  A    between atoms: _136  and  _139
REMARK   55  A    between atoms: _139  and  _140
REMARK   56  A    between atoms: _150  and  _152
REMARK   57  A    between atoms: _152  and  _153
REMARK   58  A    between atoms: _152  and  _155
REMARK   59  A    between atoms: _155  and  _156
REMARK   60  A    between atoms: _159  and  _161
REMARK   61  A    between atoms: _161  and  _162
REMARK   62  A    between atoms: _161  and  _164
REMARK   63  A    between atoms: _164  and  _165
REMARK   64  A    between atoms: _170  and  _171
REMARK   65  A    between atoms: _173  and  _175
REMARK   66  A    between atoms: _175  and  _176
REMARK   67  A    between atoms: _178  and  _180
REMARK   68  A    between atoms: _180  and  _181
REMARK   69  A    between atoms: _183  and  _185
REMARK   70  A    between atoms: _185  and  _186
REMARK   71  A    between atoms: _188  and  _190
REMARK   72  A    between atoms: _190  and  _191
REMARK   73  A    between atoms: _190  and  _193
REMARK   74  A    between atoms: _193  and  _194
REMARK   75  A    between atoms: _200  and  _202
REMARK   76  A    between atoms: _202  and  _203
REMARK   77  A    between atoms: _202  and  _205
REMARK   78  A    between atoms: _205  and  _206
REMARK   79  A    between atoms: _211  and  _212
REMARK   80  A    between atoms: _214  and  _216
REMARK   81  A    between atoms: _216  and  _217
REMARK   82  A    between atoms: _216  and  _219
REMARK   83  A    between atoms: _219  and  _220
REMARK   84  A    between atoms: _222  and  _224
REMARK   85  A    between atoms: _224  and  _225
REMARK   86  A    between atoms: _227  and  _229
REMARK   87  A    between atoms: _229  and  _230
REMARK   88  A    between atoms: _229  and  _232
REMARK   89  A    between atoms: _232  and  _233
REMARK   90  A    between atoms: _235  and  _237
REMARK   91  A    between atoms: _237  and  _238
REMARK   92  A    between atoms: _237  and  _240
REMARK   93  A    between atoms: _240  and  _241
REMARK   94  A    between atoms: _243  and  _245
REMARK   95  A    between atoms: _245  and  _246
REMARK   96  A    between atoms: _245  and  _248
REMARK   97  A    between atoms: _248  and  _249
REMARK   98  A    between atoms: _252  and  _254
REMARK   99  A    between atoms: _254  and  _255
REMARK  100  A    between atoms: _254  and  _257
REMARK  101  A    between atoms: _257  and  _258
REMARK  102  A    between atoms: _261  and  _263
REMARK  103  A    between atoms: _263  and  _264
REMARK  104  A    between atoms: _263  and  _266
REMARK  105  A    between atoms: _269  and  _271
REMARK  106  A    between atoms: _271  and  _272
REMARK  107  A    between atoms: _271  and  _274
REMARK  108  A    between atoms: _274  and  _275
REMARK  109  A    between atoms: _280  and  _281
REMARK  110  A    between atoms: _283  and  _285
REMARK  111  A    between atoms: _285  and  _286
REMARK  112  A    between atoms: _285  and  _288
REMARK  113  A    between atoms: _288  and  _289
REMARK  114  A    between atoms: _294  and  _295
REMARK  115  A    between atoms: _297  and  _299
REMARK  116  A    between atoms: _299  and  _300
REMARK  117  A    between atoms: _299  and  _302
REMARK  118  A    between atoms: _305  and  _307
REMARK  119  A    between atoms: _307  and  _308
REMARK  120  A    between atoms: _307  and  _310
REMARK  121  A    between atoms: _310  and  _311
REMARK  122  A    between atoms: _311  and  _312
REMARK  123  A    between atoms: _315  and  _317
REMARK  124  A    between atoms: _317  and  _318
REMARK  125  A    between atoms: _317  and  _320
REMARK  126  A    between atoms: _320  and  _321
REMARK  127  A    between atoms: _323  and  _325
REMARK  128  A    between atoms: _325  and  _326
REMARK  129  A    between atoms: _329  and  _331
REMARK  130  A    between atoms: _331  and  _332
REMARK  131  A    between atoms: _334  and  _336
REMARK  132  A    between atoms: _336  and  _337
REMARK  133  A    between atoms: _336  and  _339
REMARK  134  A    between atoms: _339  and  _340
REMARK  135  A    between atoms: _342  and  _344
REMARK  136  A    between atoms: _344  and  _345
REMARK  137  A    between atoms: _344  and  _347
REMARK  138  A    between atoms: _347  and  _348
REMARK  139  A    between atoms: _358  and  _360
REMARK  140  A    between atoms: _360  and  _361
REMARK  141  A    between atoms: _360  and  _363
REMARK  142  A    between atoms: _363  and  _364
REMARK  143  A    between atoms: _364  and  _365
REMARK  144  A    between atoms: _368  and  _370
REMARK  145  A    between atoms: _370  and  _371
REMARK  146  A    between atoms: _370  and  _373
REMARK  147  A    between atoms: _373  and  _374
REMARK  148  A    between atoms: _384  and  _386
REMARK  149  A    between atoms: _386  and  _387
REMARK  150  A    between atoms: _386  and  _389
REMARK  151  A    between atoms: _389  and  _390
REMARK  152  A    between atoms: _395  and  _397
REMARK  153  A    between atoms: _397  and  _398
REMARK  154  A    between atoms: _397  and  _400
REMARK  155  A    between atoms: _400  and  _401
REMARK  156  A    between atoms: _404  and  _406
REMARK  157  A    between atoms: _406  and  _407
REMARK  158  A    between atoms: _406  and  _409
REMARK  159  A    between atoms: _409  and  _410
REMARK  160  A    between atoms: _416  and  _418
REMARK  161  A    between atoms: _418  and  _419
REMARK  162  A    between atoms: _418  and  _421
REMARK  163  A    between atoms: _421  and  _422
REMARK  164  A    between atoms: _425  and  _427
REMARK  165  A    between atoms: _427  and  _428
REMARK  166  A    between atoms: _427  and  _430
REMARK  167  A    between atoms: _430  and  _431
REMARK  168  A    between atoms: _433  and  _435
REMARK  169  A    between atoms: _435  and  _436
REMARK  170  A    between atoms: _435  and  _438
REMARK  171  A    between atoms: _438  and  _439
REMARK  172  A    between atoms: _442  and  _444
REMARK  173  A    between atoms: _444  and  _445
REMARK  174  A    between atoms: _444  and  _447
REMARK  175  A    between atoms: _447  and  _448
REMARK  176  A    between atoms: _454  and  _456
REMARK  177  A    between atoms: _456  and  _457
REMARK  178  A    between atoms: _456  and  _459
REMARK  179  A    between atoms: _459  and  _460
REMARK  180  A    between atoms: _460  and  _461
REMARK  181  A    between atoms: _461  and  _462
REMARK  182  A    between atoms: _471  and  _473
REMARK  183  A    between atoms: _473  and  _474
REMARK  184  A    between atoms: _473  and  _476
REMARK  185  A    between atoms: _476  and  _477
REMARK  186  A    between atoms: _483  and  _485
REMARK  187  A    between atoms: _485  and  _486
REMARK  188  A    between atoms: _485  and  _488
REMARK  189  A    between atoms: _488  and  _489
REMARK  190  A    between atoms: _491  and  _493
REMARK  191  A    between atoms: _493  and  _494
REMARK  192  A    between atoms: _493  and  _496
REMARK  193  A    between atoms: _496  and  _497
REMARK  194  A    between atoms: _502  and  _504
REMARK  195  A    between atoms: _504  and  _505
REMARK  196  A    between atoms: _504  and  _507
REMARK  197  A    between atoms: _507  and  _508
REMARK  198  A    between atoms: _508  and  _509
REMARK  199  A    between atoms: _512  and  _514
REMARK  200  A    between atoms: _514  and  _515
REMARK  201  A    between atoms: _517  and  _519
REMARK  202  A    between atoms: _519  and  _520
REMARK  203  A    between atoms: _519  and  _522
REMARK  204  A    between atoms: _522  and  _523
REMARK  205  A    between atoms: _525  and  _527
REMARK  206  A    between atoms: _527  and  _528
REMARK  207  A    between atoms: _527  and  _530
REMARK  208  A    between atoms: _530  and  _531
REMARK  209  A    between atoms: _537  and  _539
REMARK  210  A    between atoms: _539  and  _540
REMARK  211  A    between atoms: _539  and  _542
REMARK  212  A    between atoms: _542  and  _543
REMARK  213  A    between atoms: _549  and  _551
REMARK  214  A    between atoms: _551  and  _552
REMARK  215  A    between atoms: _551  and  _554
REMARK  216  A    between atoms: _554  and  _555
REMARK  217  A    between atoms: _558  and  _560
REMARK  218  A    between atoms: _560  and  _561
REMARK  219  A    between atoms: _560  and  _563
REMARK  220  A    between atoms: _563  and  _564
REMARK  221  A    between atoms: _567  and  _569
REMARK  222  A    between atoms: _569  and  _570
REMARK  223  A    between atoms: _569  and  _572
REMARK  224  A    between atoms: _572  and  _573
REMARK  225  A    between atoms: _578  and  _579
REMARK  226  A    between atoms: _581  and  _583
REMARK  227  A    between atoms: _583  and  _584
REMARK  228  A    between atoms: _586  and  _588
REMARK  229  A    between atoms: _588  and  _589
REMARK  230  A    between atoms: _592  and  _594
REMARK  231  A    between atoms: _594  and  _595
REMARK  232  A    between atoms: _594  and  _597
REMARK  233  A    between atoms: _597  and  _598
REMARK  234  A    between atoms: _601  and  _603
REMARK  235  A    between atoms: _603  and  _604
REMARK  236  A    between atoms: _603  and  _606
REMARK  237  A    between atoms: _606  and  _607
REMARK  238  A    between atoms: _609  and  _611
REMARK  239  A    between atoms: _611  and  _612
REMARK  240  A    between atoms: _611  and  _614
REMARK  241  A    between atoms: _617  and  _619
REMARK  242  A    between atoms: _619  and  _620
REMARK  243  A    between atoms: _619  and  _622
REMARK  244  A    between atoms: _622  and  _623
REMARK  245  A    between atoms: _628  and  _630
REMARK  246  A    between atoms: _630  and  _631
REMARK  247  A    between atoms: _630  and  _633
REMARK  248  A    between atoms: _633  and  _634
REMARK  249  A    between atoms: _644  and  _646
REMARK  250  A    between atoms: _646  and  _647
REMARK  251  A    between atoms: _646  and  _649
REMARK  252  A    between atoms: _649  and  _650
REMARK  253  A    between atoms: _650  and  _651
REMARK  254  A    between atoms: _653  and  _655
REMARK  255  A    between atoms: _655  and  _656
REMARK  256  A    between atoms: _655  and  _658
REMARK  257  A    between atoms: _658  and  _659
REMARK  258  A    between atoms: _662  and  _664
REMARK  259  A    between atoms: _664  and  _665
REMARK  260  A    between atoms: _664  and  _667
REMARK  261  A    between atoms: _667  and  _668
REMARK  262  A    between atoms: _673  and  _675
REMARK  263  A    between atoms: _675  and  _676
REMARK  264  A    between atoms: _678  and  _680
REMARK  265  A    between atoms: _680  and  _681
REMARK  266  A    between atoms: _680  and  _683
REMARK  267  A    between atoms: _683  and  _684
REMARK  268  A    between atoms: _689  and  _690
REMARK  269  A    between atoms: _692  and  _694
REMARK  270  A    between atoms: _694  and  _695
REMARK  271  A    between atoms: _694  and  _697
REMARK  272  A    between atoms: _697  and  _698
REMARK  273  A    between atoms: _698  and  _699
REMARK  274  A    between atoms: _702  and  _704
REMARK  275  A    between atoms: _704  and  _705
REMARK  276  A    between atoms: _704  and  _707
REMARK  277  A    between atoms: _707  and  _708
REMARK                            x       y       z     vdW  Elec       q    Type
REMARK                         _______ _______ _______ _____ _____    ______ ____
ROOT
ATOM      1  CA  PHE A   5       8.404  62.970  70.791  0.00  0.00    +0.153 C 
ENDROOT
BRANCH   1   4
ATOM      2  C   PHE A   4       8.527  65.350  70.771  0.00  0.00    +0.241 C 
ATOM      3  O   PHE A   4       7.651  65.436  71.659  0.00  0.00    -0.273 OA
ATOM      4  N   PHE A   5       8.992  64.197  70.316  0.00  0.00    -0.297 N 
ATOM      5  H   PHE A   5       9.770  64.177  69.626  0.00  0.00    +0.150 HD
BRANCH   2   6
ATOM      6  CA  PHE A   4       9.155  66.597  70.141  0.00  0.00    +0.153 C 
BRANCH   6   9
ATOM      7  C   SER A   3      11.387  66.178  71.067  0.00  0.00    +0.243 C 
ATOM      8  O   SER A   3      10.951  66.035  72.238  0.00  0.00    -0.273 OA
ATOM      9  N   PHE A   4      10.598  66.415  70.017  0.00  0.00    -0.297 N 
ATOM     10  H   PHE A   4      11.029  66.472  69.072  0.00  0.00    +0.150 HD
BRANCH   7  11
ATOM     11  CA  SER A   3      12.897  66.041  70.777  0.00  0.00    +0.178 C 
BRANCH  11  14
ATOM     12  C   GLY A   2      12.888  64.106  69.353  0.00  0.00    +0.243 C 
ATOM     13  O   GLY A   2      12.007  63.613  70.067  0.00  0.00    -0.273 OA
ATOM     14  N   SER A   3      13.332  65.345  69.558  0.00  0.00    -0.295 N 
ATOM     15  H   SER A   3      13.967  65.806  68.876  0.00  0.00    +0.150 HD
BRANCH  12  16
ATOM     16  CA  GLY A   2      13.473  63.295  68.198  0.00  0.00    +0.176 C 
BRANCH  16  18
ATOM     17  C   GLU A   1      13.372  64.529  66.166  0.00  0.00    +0.238 C 
ATOM     18  N   GLY A   2      14.135  63.978  67.118  0.00  0.00    -0.296 N 
ATOM     19  H   GLY A   2      15.172  64.041  67.078  0.00  0.00    +0.150 HD
ATOM     20  O   GLU A   1      12.119  64.558  66.244  0.00  0.00    -0.274 OA
BRANCH  17  21
ATOM     21  CA  GLU A   1      14.065  65.162  64.966  0.00  0.00    +0.145 C 
BRANCH  21  22
ATOM     22  N   GLU A   1      15.350  65.704  65.303  0.00  0.00    -0.238 NA
ATOM     23  H   GLU A   1      16.197  65.360  64.807  0.00  0.00    +0.142 HD
ENDBRANCH  21  22
BRANCH  21  24
ATOM     24  CB  GLU A   1      14.193  64.117  63.833  0.00  0.00    +0.038 C 
BRANCH  24  25
ATOM     25  CG  GLU A   1      14.808  64.666  62.497  0.00  0.00    +0.116 C 
BRANCH  25  26
ATOM     26  CD  GLU A   1      13.819  65.484  61.666  0.00  0.00    +0.365 C 
ATOM     27  OE2 GLU A   1      12.712  65.865  62.169  0.00  0.00    -0.246 OA
ATOM     28  OE1 GLU A   1      14.129  65.756  60.483  0.00  0.00    -0.246 OA
ENDBRANCH  25  26
ENDBRANCH  24  25
ENDBRANCH  21  24
ENDBRANCH  17  21
ENDBRANCH  16  18
ENDBRANCH  12  16
ENDBRANCH  11  14
BRANCH  11  29
ATOM     29  CB  SER A   3      13.601  67.398  70.861  0.00  0.00    +0.166 C 
BRANCH  29  30
ATOM     30  OG  SER A   3      13.184  68.287  69.846  0.00  0.00    -0.380 OA
ATOM     31  H   SER A   3      13.666  69.146  69.943  0.00  0.00    +0.211 HD
ENDBRANCH  29  30
ENDBRANCH  11  29
ENDBRANCH   7  11
ENDBRANCH   6   9
BRANCH   6  32
ATOM     32  CB  PHE A   4       8.497  66.780  68.754  0.00  0.00    +0.055 C 
BRANCH  32  33
ATOM     33  CG  PHE A   4       7.415  67.840  68.697  0.00  0.00    -0.020 A 
ATOM     34  CD2 PHE A   4       6.546  68.024  69.742  0.00  0.00    -0.004 A 
ATOM     35  CE2 PHE A   4       5.580  69.027  69.686  0.00  0.00    -0.000 A 
ATOM     36  CZ  PHE A   4       5.470  69.855  68.554  0.00  0.00    -0.000 A 
ATOM     37  CE1 PHE A   4       6.337  69.658  67.495  0.00  0.00    -0.000 A 
ATOM     38  CD1 PHE A   4       7.300  68.667  67.566  0.00  0.00    -0.004 A 
ENDBRANCH  32  33
ENDBRANCH   6  32
ENDBRANCH   2   6
ENDBRANCH   1   4
BRANCH   1  39
ATOM     39  C   PHE A   5       8.842  62.610  72.191  0.00  0.00    +0.241 C 
ATOM     40  O   PHE A   5       8.036  62.058  72.937  0.00  0.00    -0.273 OA
ATOM     41  N   LEU A   6      10.073  62.956  72.575  0.00  0.00    -0.297 N 
ATOM     42  H   LEU A   6      10.703  63.463  71.921  0.00  0.00    +0.150 HD
BRANCH  41  43
ATOM     43  CA  LEU A   6      10.533  62.612  73.938  0.00  0.00    +0.149 C 
BRANCH  43  44
ATOM     44  C   LEU A   6       9.795  63.512  74.923  0.00  0.00    +0.241 C 
ATOM     45  O   LEU A   6       9.366  63.065  75.979  0.00  0.00    -0.273 OA
ATOM     46  N   LEU A   7       9.624  64.786  74.545  0.00  0.00    -0.297 N 
ATOM     47  H   LEU A   7       9.965  65.090  73.611  0.00  0.00    +0.150 HD
BRANCH  46  48
ATOM     48  CA  LEU A   7       8.973  65.751  75.411  0.00  0.00    +0.149 C 
BRANCH  48  49
ATOM     49  C   LEU A   7       7.595  65.250  75.751  0.00  0.00    +0.241 C 
ATOM     50  O   LEU A   7       7.176  65.278  76.906  0.00  0.00    -0.273 OA
ATOM     51  N   TYR A   8       6.871  64.811  74.716  0.00  0.00    -0.297 N 
ATOM     52  H   TYR A   8       7.281  64.786  73.761  0.00  0.00    +0.150 HD
BRANCH  51  53
ATOM     53  CA  TYR A   8       5.492  64.365  74.942  0.00  0.00    +0.153 C 
BRANCH  53  54
ATOM     54  C   TYR A   8       5.379  62.959  75.445  0.00  0.00    +0.241 C 
ATOM     55  O   TYR A   8       4.376  62.622  76.051  0.00  0.00    -0.273 OA
ATOM     56  N   GLY A   9       6.362  62.112  75.227  0.00  0.00    -0.295 N 
ATOM     57  H   GLY A   9       7.251  62.389  74.765  0.00  0.00    +0.150 HD
BRANCH  56  58
ATOM     58  CA  GLY A   9       6.104  60.764  75.683  0.00  0.00    +0.176 C 
BRANCH  58  59
ATOM     59  C   GLY A   9       7.085  59.964  76.508  0.00  0.00    +0.243 C 
ATOM     60  N   ALA A  10       8.226  60.541  76.928  0.00  0.00    -0.298 N 
ATOM     61  H   ALA A  10       8.404  61.542  76.708  0.00  0.00    +0.150 HD
ATOM     62  O   GLY A   9       6.767  58.804  76.749  0.00  0.00    -0.273 OA
BRANCH  60  63
ATOM     63  CA  ALA A  10       9.225  59.780  77.693  0.00  0.00    +0.137 C 
ATOM     64  CB  ALA A  10      10.526  59.760  76.980  0.00  0.00    +0.030 C 
BRANCH  63  65
ATOM     65  C   ALA A  10       9.420  60.411  79.051  0.00  0.00    +0.227 C 
ATOM     66  O   ALA A  10       9.454  61.632  79.165  0.00  0.00    -0.286 OA
ENDBRANCH  63  65
ENDBRANCH  60  63
ENDBRANCH  58  59
ENDBRANCH  56  58
ENDBRANCH  53  54
BRANCH  53  67
ATOM     67  CB  TYR A   8       4.642  64.460  73.656  0.00  0.00    +0.055 C 
BRANCH  67  68
ATOM     68  CG  TYR A   8       4.103  65.838  73.365  0.00  0.00    -0.020 A 
ATOM     69  CD2 TYR A   8       2.714  66.077  73.347  0.00  0.00    -0.001 A 
ATOM     70  CE2 TYR A   8       2.212  67.359  73.081  0.00  0.00    +0.036 A 
ATOM     71  CZ  TYR A   8       3.072  68.411  72.832  0.00  0.00    +0.134 A 
ATOM     72  CE1 TYR A   8       4.464  68.194  72.856  0.00  0.00    +0.036 A 
ATOM     73  CD1 TYR A   8       4.970  66.911  73.113  0.00  0.00    -0.001 A 
BRANCH  71  74
ATOM     74  OH  TYR A   8       2.568  69.658  72.477  0.00  0.00    -0.506 OA
ATOM     75  HH  TYR A   8       2.045  69.575  71.641  0.00  0.00    +0.292 HD
ENDBRANCH  71  74
ENDBRANCH  67  68
ENDBRANCH  53  67
ENDBRANCH  51  53
ENDBRANCH  48  49
BRANCH  48  76
ATOM     76  CB  LEU A   7       8.835  67.145  74.732  0.00  0.00    +0.029 C 
BRANCH  76  77
ATOM     77  CG  LEU A   7       7.805  68.090  75.397  0.00  0.00    +0.002 C 
ATOM     78  CD2 LEU A   7       8.197  68.326  76.904  0.00  0.00    +0.000 C 
ATOM     79  CD1 LEU A   7       7.714  69.463  74.629  0.00  0.00    +0.000 C 
ENDBRANCH  76  77
ENDBRANCH  48  76
ENDBRANCH  46  48
ENDBRANCH  43  44
BRANCH  43  80
ATOM     80  CB  LEU A   6      12.067  62.834  74.080  0.00  0.00    +0.029 C 
BRANCH  80  81
ATOM     81  CG  LEU A   6      12.911  61.826  73.279  0.00  0.00    +0.002 C 
ATOM     82  CD2 LEU A   6      12.927  60.495  74.069  0.00  0.00    +0.000 C 
ATOM     83  CD1 LEU A   6      14.356  62.401  73.035  0.00  0.00    +0.000 C 
ENDBRANCH  80  81
ENDBRANCH  43  80
ENDBRANCH  41  43
ENDBRANCH   1  39
BRANCH   1  84
ATOM     84  CB  PHE A   5       8.699  61.850  69.783  0.00  0.00    +0.055 C 
BRANCH  84  85
ATOM     85  CG  PHE A   5       8.175  62.162  68.420  0.00  0.00    -0.020 A 
ATOM     86  CD2 PHE A   5       6.861  61.809  68.075  0.00  0.00    -0.004 A 
ATOM     87  CE2 PHE A   5       6.298  62.218  66.858  0.00  0.00    -0.000 A 
ATOM     88  CZ  PHE A   5       7.059  62.985  65.966  0.00  0.00    -0.000 A 
ATOM     89  CE1 PHE A   5       8.404  63.355  66.291  0.00  0.00    -0.000 A 
ATOM     90  CD1 PHE A   5       8.945  62.930  67.533  0.00  0.00    -0.004 A 
ENDBRANCH  84  85
ENDBRANCH   1  84
TORSDOF 36
REMARK  Name = ../refined-set-2016/1h22/1h22_pocket.pdb
REMARK  277 active torsions:
REMARK  status: ('A' for Active; 'I' for Inactive)
REMARK    1  A    between atoms: _1  and  _3
REMARK    2  A    between atoms: _3  and  _4
REMARK    3  A    between atoms: _3  and  _6
REMARK    4  A    between atoms: _6  and  _7
REMARK    5  A    between atoms: _7  and  _8
REMARK    6  A    between atoms: _13  and  _15
REMARK    7  A    between atoms: _15  and  _16
REMARK    8  A    between atoms: _15  and  _18
REMARK    9  A    between atoms: _18  and  _19
REMARK   10  A    between atoms: _24  and  _25
REMARK   11  A    between atoms: _27  and  _29
REMARK   12  A    between atoms: _29  and  _30
REMARK   13  A    between atoms: _29  and  _32
REMARK   14  A    between atoms: _35  and  _37
REMARK   15  A    between atoms: _37  and  _38
REMARK   16  A    between atoms: _37  and  _40
REMARK   17  A    between atoms: _40  and  _41
REMARK   18  A    between atoms: _44  and  _46
REMARK   19  A    between atoms: _46  and  _47
REMARK   20  A    between atoms: _46  and  _49
REMARK   21  A    between atoms: _49  and  _50
REMARK   22  A    between atoms: _50  and  _51
REMARK   23  A    between atoms: _54  and  _56
REMARK   24  A    between atoms: _56  and  _57
REMARK   25  A    between atoms: _56  and  _59
REMARK   26  A    between atoms: _59  and  _60
REMARK   27  A    between atoms: _60  and  _61
REMARK   28  A    between atoms: _66  and  _68
REMARK   29  A    between atoms: _68  and  _69
REMARK   30  A    between atoms: _68  and  _71
REMARK   31  A    between atoms: _71  and  _72
REMARK   32  A    between atoms: _78  and  _80
REMARK   33  A    between atoms: _80  and  _81
REMARK   34  A    between atoms: _83  and  _85
REMARK   35  A    between atoms: _85  and  _86
REMARK   36  A    between atoms: _85  and  _88
REMARK   37  A    between atoms: _88  and  _89
REMARK   38  A    between atoms: _91  and  _93
REMARK   39  A    between atoms: _93  and  _94
REMARK   40  A    between atoms: _93  and  _96
REMARK   41  A    between atoms: _96  and  _97
REMARK   42  A    between atoms: _97  and  _98
REMARK   43  A    between atoms: _100  and  _102
REMARK   44  A    between atoms: _102  and  _103
REMARK   45  A    between atoms: _102  and  _105
REMARK   46  A    between atoms: _105  and  _106
REMARK   47  A    between atoms: _116  and  _118
REMARK   48  A    between atoms: _118  and  _119
REMARK   49  A    between atoms: _118  and  _121
REMARK   50  A    between atoms: _121  and  _122
REMARK   51  A    between atoms: _128  and  _129
REMARK   52  A    between atoms: _134  and  _136
REMARK   53  A    between atoms: _136  and  _137
REMARK   54  A    between atoms: _136  and  _139
REMARK   55  A    between atoms: _139  and  _140
REMARK   56  A    between atoms: _150  and  _152
REMARK   57  A    between atoms: _152  and  _153
REMARK   58  A    between atoms: _152  and  _155
REMARK   59  A    between atoms: _155  and  _156
REMARK   60  A    between atoms: _159  and  _161
REMARK   61  A    between atoms: _161  and  _162
REMARK   62  A    between atoms: _161  and  _164
REMARK   63  A    between atoms: _164  and  _165
REMARK   64  A    between atoms: _170  and  _171
REMARK   65  A    between atoms: _173  and  _175
REMARK   66  A    between atoms: _175  and  _176
REMARK   67  A    between atoms: _178  and  _180
REMARK   68  A    between atoms: _180  and  _181
REMARK   69  A    between atoms: _183  and  _185
REMARK   70  A    between atoms: _185  and  _186
REMARK   71  A    between atoms: _188  and  _190
REMARK   72  A    between atoms: _190  and  _191
REMARK   73  A    between atoms: _190  and  _193
REMARK   74  A    between atoms: _193  and  _194
REMARK   75  A    between atoms: _200  and  _202
REMARK   76  A    between atoms: _202  and  _203
REMARK   77  A    between atoms: _202  and  _205
REMARK   78  A    between atoms: _205  and  _206
REMARK   79  A    between atoms: _211  and  _212
REMARK   80  A    between atoms: _214  and  _216
REMARK   81  A    between atoms: _216  and  _217
REMARK   82  A    between atoms: _216  and  _219
REMARK   83  A    between atoms: _219  and  _220
REMARK   84  A    between atoms: _222  and  _224
REMARK   85  A    between atoms: _224  and  _225
REMARK   86  A    between atoms: _227  and  _229
REMARK   87  A    between atoms: _229  and  _230
REMARK   88  A    between atoms: _229  and  _232
REMARK   89  A    between atoms: _232  and  _233
REMARK   90  A    between atoms: _235  and  _237
REMARK   91  A    between atoms: _237  and  _238
REMARK   92  A    between atoms: _237  and  _240
REMARK   93  A    between atoms: _240  and  _241
REMARK   94  A    between atoms: _243  and  _245
REMARK   95  A    between atoms: _245  and  _246
REMARK   96  A    between atoms: _245  and  _248
REMARK   97  A    between atoms: _248  and  _249
REMARK   98  A    between atoms: _252  and  _254
REMARK   99  A    between atoms: _254  and  _255
REMARK  100  A    between atoms: _254  and  _257
REMARK  101  A    between atoms: _257  and  _258
REMARK  102  A    between atoms: _261  and  _263
REMARK  103  A    between atoms: _263  and  _264
REMARK  104  A    between atoms: _263  and  _266
REMARK  105  A    between atoms: _269  and  _271
REMARK  106  A    between atoms: _271  and  _272
REMARK  107  A    between atoms: _271  and  _274
REMARK  108  A    between atoms: _274  and  _275
REMARK  109  A    between atoms: _280  and  _281
REMARK  110  A    between atoms: _283  and  _285
REMARK  111  A    between atoms: _285  and  _286
REMARK  112  A    between atoms: _285  and  _288
REMARK  113  A    between atoms: _288  and  _289
REMARK  114  A    between atoms: _294  and  _295
REMARK  115  A    between atoms: _297  and  _299
REMARK  116  A    between atoms: _299  and  _300
REMARK  117  A    between atoms: _299  and  _302
REMARK  118  A    between atoms: _305  and  _307
REMARK  119  A    between atoms: _307  and  _308
REMARK  120  A    between atoms: _307  and  _310
REMARK  121  A    between atoms: _310  and  _311
REMARK  122  A    between atoms: _311  and  _312
REMARK  123  A    between atoms: _315  and  _317
REMARK  124  A    between atoms: _317  and  _318
REMARK  125  A    between atoms: _317  and  _320
REMARK  126  A    between atoms: _320  and  _321
REMARK  127  A    between atoms: _323  and  _325
REMARK  128  A    between atoms: _325  and  _326
REMARK  129  A    between atoms: _329  and  _331
REMARK  130  A    between atoms: _331  and  _332
REMARK  131  A    between atoms: _334  and  _336
REMARK  132  A    between atoms: _336  and  _337
REMARK  133  A    between atoms: _336  and  _339
REMARK  134  A    between atoms: _339  and  _340
REMARK  135  A    between atoms: _342  and  _344
REMARK  136  A    between atoms: _344  and  _345
REMARK  137  A    between atoms: _344  and  _347
REMARK  138  A    between atoms: _347  and  _348
REMARK  139  A    between atoms: _358  and  _360
REMARK  140  A    between atoms: _360  and  _361
REMARK  141  A    between atoms: _360  and  _363
REMARK  142  A    between atoms: _363  and  _364
REMARK  143  A    between atoms: _364  and  _365
REMARK  144  A    between atoms: _368  and  _370
REMARK  145  A    between atoms: _370  and  _371
REMARK  146  A    between atoms: _370  and  _373
REMARK  147  A    between atoms: _373  and  _374
REMARK  148  A    between atoms: _384  and  _386
REMARK  149  A    between atoms: _386  and  _387
REMARK  150  A    between atoms: _386  and  _389
REMARK  151  A    between atoms: _389  and  _390
REMARK  152  A    between atoms: _395  and  _397
REMARK  153  A    between atoms: _397  and  _398
REMARK  154  A    between atoms: _397  and  _400
REMARK  155  A    between atoms: _400  and  _401
REMARK  156  A    between atoms: _404  and  _406
REMARK  157  A    between atoms: _406  and  _407
REMARK  158  A    between atoms: _406  and  _409
REMARK  159  A    between atoms: _409  and  _410
REMARK  160  A    between atoms: _416  and  _418
REMARK  161  A    between atoms: _418  and  _419
REMARK  162  A    between atoms: _418  and  _421
REMARK  163  A    between atoms: _421  and  _422
REMARK  164  A    between atoms: _425  and  _427
REMARK  165  A    between atoms: _427  and  _428
REMARK  166  A    between atoms: _427  and  _430
REMARK  167  A    between atoms: _430  and  _431
REMARK  168  A    between atoms: _433  and  _435
REMARK  169  A    between atoms: _435  and  _436
REMARK  170  A    between atoms: _435  and  _438
REMARK  171  A    between atoms: _438  and  _439
REMARK  172  A    between atoms: _442  and  _444
REMARK  173  A    between atoms: _444  and  _445
REMARK  174  A    between atoms: _444  and  _447
REMARK  175  A    between atoms: _447  and  _448
REMARK  176  A    between atoms: _454  and  _456
REMARK  177  A    between atoms: _456  and  _457
REMARK  178  A    between atoms: _456  and  _459
REMARK  179  A    between atoms: _459  and  _460
REMARK  180  A    between atoms: _460  and  _461
REMARK  181  A    between atoms: _461  and  _462
REMARK  182  A    between atoms: _471  and  _473
REMARK  183  A    between atoms: _473  and  _474
REMARK  184  A    between atoms: _473  and  _476
REMARK  185  A    between atoms: _476  and  _477
REMARK  186  A    between atoms: _483  and  _485
REMARK  187  A    between atoms: _485  and  _486
REMARK  188  A    between atoms: _485  and  _488
REMARK  189  A    between atoms: _488  and  _489
REMARK  190  A    between atoms: _491  and  _493
REMARK  191  A    between atoms: _493  and  _494
REMARK  192  A    between atoms: _493  and  _496
REMARK  193  A    between atoms: _496  and  _497
REMARK  194  A    between atoms: _502  and  _504
REMARK  195  A    between atoms: _504  and  _505
REMARK  196  A    between atoms: _504  and  _507
REMARK  197  A    between atoms: _507  and  _508
REMARK  198  A    between atoms: _508  and  _509
REMARK  199  A    between atoms: _512  and  _514
REMARK  200  A    between atoms: _514  and  _515
REMARK  201  A    between atoms: _517  and  _519
REMARK  202  A    between atoms: _519  and  _520
REMARK  203  A    between atoms: _519  and  _522
REMARK  204  A    between atoms: _522  and  _523
REMARK  205  A    between atoms: _525  and  _527
REMARK  206  A    between atoms: _527  and  _528
REMARK  207  A    between atoms: _527  and  _530
REMARK  208  A    between atoms: _530  and  _531
REMARK  209  A    between atoms: _537  and  _539
REMARK  210  A    between atoms: _539  and  _540
REMARK  211  A    between atoms: _539  and  _542
REMARK  212  A    between atoms: _542  and  _543
REMARK  213  A    between atoms: _549  and  _551
REMARK  214  A    between atoms: _551  and  _552
REMARK  215  A    between atoms: _551  and  _554
REMARK  216  A    between atoms: _554  and  _555
REMARK  217  A    between atoms: _558  and  _560
REMARK  218  A    between atoms: _560  and  _561
REMARK  219  A    between atoms: _560  and  _563
REMARK  220  A    between atoms: _563  and  _564
REMARK  221  A    between atoms: _567  and  _569
REMARK  222  A    between atoms: _569  and  _570
REMARK  223  A    between atoms: _569  and  _572
REMARK  224  A    between atoms: _572  and  _573
REMARK  225  A    between atoms: _578  and  _579
REMARK  226  A    between atoms: _581  and  _583
REMARK  227  A    between atoms: _583  and  _584
REMARK  228  A    between atoms: _586  and  _588
REMARK  229  A    between atoms: _588  and  _589
REMARK  230  A    between atoms: _592  and  _594
REMARK  231  A    between atoms: _594  and  _595
REMARK  232  A    between atoms: _594  and  _597
REMARK  233  A    between atoms: _597  and  _598
REMARK  234  A    between atoms: _601  and  _603
REMARK  235  A    between atoms: _603  and  _604
REMARK  236  A    between atoms: _603  and  _606
REMARK  237  A    between atoms: _606  and  _607
REMARK  238  A    between atoms: _609  and  _611
REMARK  239  A    between atoms: _611  and  _612
REMARK  240  A    between atoms: _611  and  _614
REMARK  241  A    between atoms: _617  and  _619
REMARK  242  A    between atoms: _619  and  _620
REMARK  243  A    between atoms: _619  and  _622
REMARK  244  A    between atoms: _622  and  _623
REMARK  245  A    between atoms: _628  and  _630
REMARK  246  A    between atoms: _630  and  _631
REMARK  247  A    between atoms: _630  and  _633
REMARK  248  A    between atoms: _633  and  _634
REMARK  249  A    between atoms: _644  and  _646
REMARK  250  A    between atoms: _646  and  _647
REMARK  251  A    between atoms: _646  and  _649
REMARK  252  A    between atoms: _649  and  _650
REMARK  253  A    between atoms: _650  and  _651
REMARK  254  A    between atoms: _653  and  _655
REMARK  255  A    between atoms: _655  and  _656
REMARK  256  A    between atoms: _655  and  _658
REMARK  257  A    between atoms: _658  and  _659
REMARK  258  A    between atoms: _662  and  _664
REMARK  259  A    between atoms: _664  and  _665
REMARK  260  A    between atoms: _664  and  _667
REMARK  261  A    between atoms: _667  and  _668
REMARK  262  A    between atoms: _673  and  _675
REMARK  263  A    between atoms: _675  and  _676
REMARK  264  A    between atoms: _678  and  _680
REMARK  265  A    between atoms: _680  and  _681
REMARK  266  A    between atoms: _680  and  _683
REMARK  267  A    between atoms: _683  and  _684
REMARK  268  A    between atoms: _689  and  _690
REMARK  269  A    between atoms: _692  and  _694
REMARK  270  A    between atoms: _694  and  _695
REMARK  271  A    between atoms: _694  and  _697
REMARK  272  A    between atoms: _697  and  _698
REMARK  273  A    between atoms: _698  and  _699
REMARK  274  A    between atoms: _702  and  _704
REMARK  275  A    between atoms: _704  and  _705
REMARK  276  A    between atoms: _704  and  _707
REMARK  277  A    between atoms: _707  and  _708
REMARK                            x       y       z     vdW  Elec       q    Type
REMARK                         _______ _______ _______ _____ _____    ______ ____
ROOT
ATOM      1  C   LEU A   1      10.407  53.530  73.007  0.00  0.00    +0.238 C 
ATOM      2  N   SER A   2      11.669  53.871  72.695  0.00  0.00    -0.296 N 
ATOM      3  H   SER A   2      12.370  53.905  73.463  0.00  0.00    +0.150 HD
ATOM      4  O   LEU A   1       9.496  53.390  72.182  0.00  0.00    -0.274 OA
ENDROOT
BRANCH   1   5
ATOM      5  CA  LEU A   1      10.139  53.267  74.487  0.00  0.00    +0.145 C 
BRANCH   5   6
ATOM      6  N   LEU A   1      11.270  52.611  75.145  0.00  0.00    -0.238 NA
ATOM      7  H   LEU A   1      11.796  53.129  75.878  0.00  0.00    +0.142 HD
ENDBRANCH   5   6
BRANCH   5   8
ATOM      8  CB  LEU A   1       9.871  54.587  75.163  0.00  0.00    +0.026 C 
BRANCH   8   9
ATOM      9  CG  LEU A   1       8.664  54.854  76.047  0.00  0.00    +0.002 C 
ATOM     10  CD2 LEU A   1       9.174  55.755  77.188  0.00  0.00    +0.000 C 
ATOM     11  CD1 LEU A   1       7.893  53.593  76.501  0.00  0.00    +0.000 C 
ENDBRANCH   8   9
ENDBRANCH   5   8
ENDBRANCH   1   5
BRANCH   2  12
ATOM     12  CA  SER A   2      12.114  54.195  71.353  0.00  0.00    +0.166 C 
BRANCH  12  13
ATOM     13  C   SER A   2      12.245  53.068  70.392  0.00  0.00    +0.229 C 
ATOM     14  O   SER A   2      12.112  53.297  69.195  0.00  0.00    -0.286 OA
ENDBRANCH  12  13
BRANCH  12  15
ATOM     15  CB  SER A   2      13.447  54.919  71.403  0.00  0.00    +0.165 C 
BRANCH  15  16
ATOM     16  OG  SER A   2      13.331  56.048  72.229  0.00  0.00    -0.380 OA
ATOM     17  H   SER A   2      13.074  55.763  73.141  0.00  0.00    +0.211 HD
ENDBRANCH  15  16
ENDBRANCH  12  15
ENDBRANCH   2  12
TORSDOF 8
REMARK  Name = ../refined-set-2016/1h22/1h22_pocket.pdb
REMARK  277 active torsions:
REMARK  status: ('A' for Active; 'I' for Inactive)
REMARK    1  A    between atoms: _1  and  _3
REMARK    2  A    between atoms: _3  and  _4
REMARK    3  A    between atoms: _3  and  _6
REMARK    4  A    between atoms: _6  and  _7
REMARK    5  A    between atoms: _7  and  _8
REMARK    6  A    between atoms: _13  and  _15
REMARK    7  A    between atoms: _15  and  _16
REMARK    8  A    between atoms: _15  and  _18
REMARK    9  A    between atoms: _18  and  _19
REMARK   10  A    between atoms: _24  and  _25
REMARK   11  A    between atoms: _27  and  _29
REMARK   12  A    between atoms: _29  and  _30
REMARK   13  A    between atoms: _29  and  _32
REMARK   14  A    between atoms: _35  and  _37
REMARK   15  A    between atoms: _37  and  _38
REMARK   16  A    between atoms: _37  and  _40
REMARK   17  A    between atoms: _40  and  _41
REMARK   18  A    between atoms: _44  and  _46
REMARK   19  A    between atoms: _46  and  _47
REMARK   20  A    between atoms: _46  and  _49
REMARK   21  A    between atoms: _49  and  _50
REMARK   22  A    between atoms: _50  and  _51
REMARK   23  A    between atoms: _54  and  _56
REMARK   24  A    between atoms: _56  and  _57
REMARK   25  A    between atoms: _56  and  _59
REMARK   26  A    between atoms: _59  and  _60
REMARK   27  A    between atoms: _60  and  _61
REMARK   28  A    between atoms: _66  and  _68
REMARK   29  A    between atoms: _68  and  _69
REMARK   30  A    between atoms: _68  and  _71
REMARK   31  A    between atoms: _71  and  _72
REMARK   32  A    between atoms: _78  and  _80
REMARK   33  A    between atoms: _80  and  _81
REMARK   34  A    between atoms: _83  and  _85
REMARK   35  A    between atoms: _85  and  _86
REMARK   36  A    between atoms: _85  and  _88
REMARK   37  A    between atoms: _88  and  _89
REMARK   38  A    between atoms: _91  and  _93
REMARK   39  A    between atoms: _93  and  _94
REMARK   40  A    between atoms: _93  and  _96
REMARK   41  A    between atoms: _96  and  _97
REMARK   42  A    between atoms: _97  and  _98
REMARK   43  A    between atoms: _100  and  _102
REMARK   44  A    between atoms: _102  and  _103
REMARK   45  A    between atoms: _102  and  _105
REMARK   46  A    between atoms: _105  and  _106
REMARK   47  A    between atoms: _116  and  _118
REMARK   48  A    between atoms: _118  and  _119
REMARK   49  A    between atoms: _118  and  _121
REMARK   50  A    between atoms: _121  and  _122
REMARK   51  A    between atoms: _128  and  _129
REMARK   52  A    between atoms: _134  and  _136
REMARK   53  A    between atoms: _136  and  _137
REMARK   54  A    between atoms: _136  and  _139
REMARK   55  A    between atoms: _139  and  _140
REMARK   56  A    between atoms: _150  and  _152
REMARK   57  A    between atoms: _152  and  _153
REMARK   58  A    between atoms: _152  and  _155
REMARK   59  A    between atoms: _155  and  _156
REMARK   60  A    between atoms: _159  and  _161
REMARK   61  A    between atoms: _161  and  _162
REMARK   62  A    between atoms: _161  and  _164
REMARK   63  A    between atoms: _164  and  _165
REMARK   64  A    between atoms: _170  and  _171
REMARK   65  A    between atoms: _173  and  _175
REMARK   66  A    between atoms: _175  and  _176
REMARK   67  A    between atoms: _178  and  _180
REMARK   68  A    between atoms: _180  and  _181
REMARK   69  A    between atoms: _183  and  _185
REMARK   70  A    between atoms: _185  and  _186
REMARK   71  A    between atoms: _188  and  _190
REMARK   72  A    between atoms: _190  and  _191
REMARK   73  A    between atoms: _190  and  _193
REMARK   74  A    between atoms: _193  and  _194
REMARK   75  A    between atoms: _200  and  _202
REMARK   76  A    between atoms: _202  and  _203
REMARK   77  A    between atoms: _202  and  _205
REMARK   78  A    between atoms: _205  and  _206
REMARK   79  A    between atoms: _211  and  _212
REMARK   80  A    between atoms: _214  and  _216
REMARK   81  A    between atoms: _216  and  _217
REMARK   82  A    between atoms: _216  and  _219
REMARK   83  A    between atoms: _219  and  _220
REMARK   84  A    between atoms: _222  and  _224
REMARK   85  A    between atoms: _224  and  _225
REMARK   86  A    between atoms: _227  and  _229
REMARK   87  A    between atoms: _229  and  _230
REMARK   88  A    between atoms: _229  and  _232
REMARK   89  A    between atoms: _232  and  _233
REMARK   90  A    between atoms: _235  and  _237
REMARK   91  A    between atoms: _237  and  _238
REMARK   92  A    between atoms: _237  and  _240
REMARK   93  A    between atoms: _240  and  _241
REMARK   94  A    between atoms: _243  and  _245
REMARK   95  A    between atoms: _245  and  _246
REMARK   96  A    between atoms: _245  and  _248
REMARK   97  A    between atoms: _248  and  _249
REMARK   98  A    between atoms: _252  and  _254
REMARK   99  A    between atoms: _254  and  _255
REMARK  100  A    between atoms: _254  and  _257
REMARK  101  A    between atoms: _257  and  _258
REMARK  102  A    between atoms: _261  and  _263
REMARK  103  A    between atoms: _263  and  _264
REMARK  104  A    between atoms: _263  and  _266
REMARK  105  A    between atoms: _269  and  _271
REMARK  106  A    between atoms: _271  and  _272
REMARK  107  A    between atoms: _271  and  _274
REMARK  108  A    between atoms: _274  and  _275
REMARK  109  A    between atoms: _280  and  _281
REMARK  110  A    between atoms: _283  and  _285
REMARK  111  A    between atoms: _285  and  _286
REMARK  112  A    between atoms: _285  and  _288
REMARK  113  A    between atoms: _288  and  _289
REMARK  114  A    between atoms: _294  and  _295
REMARK  115  A    between atoms: _297  and  _299
REMARK  116  A    between atoms: _299  and  _300
REMARK  117  A    between atoms: _299  and  _302
REMARK  118  A    between atoms: _305  and  _307
REMARK  119  A    between atoms: _307  and  _308
REMARK  120  A    between atoms: _307  and  _310
REMARK  121  A    between atoms: _310  and  _311
REMARK  122  A    between atoms: _311  and  _312
REMARK  123  A    between atoms: _315  and  _317
REMARK  124  A    between atoms: _317  and  _318
REMARK  125  A    between atoms: _317  and  _320
REMARK  126  A    between atoms: _320  and  _321
REMARK  127  A    between atoms: _323  and  _325
REMARK  128  A    between atoms: _325  and  _326
REMARK  129  A    between atoms: _329  and  _331
REMARK  130  A    between atoms: _331  and  _332
REMARK  131  A    between atoms: _334  and  _336
REMARK  132  A    between atoms: _336  and  _337
REMARK  133  A    between atoms: _336  and  _339
REMARK  134  A    between atoms: _339  and  _340
REMARK  135  A    between atoms: _342  and  _344
REMARK  136  A    between atoms: _344  and  _345
REMARK  137  A    between atoms: _344  and  _347
REMARK  138  A    between atoms: _347  and  _348
REMARK  139  A    between atoms: _358  and  _360
REMARK  140  A    between atoms: _360  and  _361
REMARK  141  A    between atoms: _360  and  _363
REMARK  142  A    between atoms: _363  and  _364
REMARK  143  A    between atoms: _364  and  _365
REMARK  144  A    between atoms: _368  and  _370
REMARK  145  A    between atoms: _370  and  _371
REMARK  146  A    between atoms: _370  and  _373
REMARK  147  A    between atoms: _373  and  _374
REMARK  148  A    between atoms: _384  and  _386
REMARK  149  A    between atoms: _386  and  _387
REMARK  150  A    between atoms: _386  and  _389
REMARK  151  A    between atoms: _389  and  _390
REMARK  152  A    between atoms: _395  and  _397
REMARK  153  A    between atoms: _397  and  _398
REMARK  154  A    between atoms: _397  and  _400
REMARK  155  A    between atoms: _400  and  _401
REMARK  156  A    between atoms: _404  and  _406
REMARK  157  A    between atoms: _406  and  _407
REMARK  158  A    between atoms: _406  and  _409
REMARK  159  A    between atoms: _409  and  _410
REMARK  160  A    between atoms: _416  and  _418
REMARK  161  A    between atoms: _418  and  _419
REMARK  162  A    between atoms: _418  and  _421
REMARK  163  A    between atoms: _421  and  _422
REMARK  164  A    between atoms: _425  and  _427
REMARK  165  A    between atoms: _427  and  _428
REMARK  166  A    between atoms: _427  and  _430
REMARK  167  A    between atoms: _430  and  _431
REMARK  168  A    between atoms: _433  and  _435
REMARK  169  A    between atoms: _435  and  _436
REMARK  170  A    between atoms: _435  and  _438
REMARK  171  A    between atoms: _438  and  _439
REMARK  172  A    between atoms: _442  and  _444
REMARK  173  A    between atoms: _444  and  _445
REMARK  174  A    between atoms: _444  and  _447
REMARK  175  A    between atoms: _447  and  _448
REMARK  176  A    between atoms: _454  and  _456
REMARK  177  A    between atoms: _456  and  _457
REMARK  178  A    between atoms: _456  and  _459
REMARK  179  A    between atoms: _459  and  _460
REMARK  180  A    between atoms: _460  and  _461
REMARK  181  A    between atoms: _461  and  _462
REMARK  182  A    between atoms: _471  and  _473
REMARK  183  A    between atoms: _473  and  _474
REMARK  184  A    between atoms: _473  and  _476
REMARK  185  A    between atoms: _476  and  _477
REMARK  186  A    between atoms: _483  and  _485
REMARK  187  A    between atoms: _485  and  _486
REMARK  188  A    between atoms: _485  and  _488
REMARK  189  A    between atoms: _488  and  _489
REMARK  190  A    between atoms: _491  and  _493
REMARK  191  A    between atoms: _493  and  _494
REMARK  192  A    between atoms: _493  and  _496
REMARK  193  A    between atoms: _496  and  _497
REMARK  194  A    between atoms: _502  and  _504
REMARK  195  A    between atoms: _504  and  _505
REMARK  196  A    between atoms: _504  and  _507
REMARK  197  A    between atoms: _507  and  _508
REMARK  198  A    between atoms: _508  and  _509
REMARK  199  A    between atoms: _512  and  _514
REMARK  200  A    between atoms: _514  and  _515
REMARK  201  A    between atoms: _517  and  _519
REMARK  202  A    between atoms: _519  and  _520
REMARK  203  A    between atoms: _519  and  _522
REMARK  204  A    between atoms: _522  and  _523
REMARK  205  A    between atoms: _525  and  _527
REMARK  206  A    between atoms: _527  and  _528
REMARK  207  A    between atoms: _527  and  _530
REMARK  208  A    between atoms: _530  and  _531
REMARK  209  A    between atoms: _537  and  _539
REMARK  210  A    between atoms: _539  and  _540
REMARK  211  A    between atoms: _539  and  _542
REMARK  212  A    between atoms: _542  and  _543
REMARK  213  A    between atoms: _549  and  _551
REMARK  214  A    between atoms: _551  and  _552
REMARK  215  A    between atoms: _551  and  _554
REMARK  216  A    between atoms: _554  and  _555
REMARK  217  A    between atoms: _558  and  _560
REMARK  218  A    between atoms: _560  and  _561
REMARK  219  A    between atoms: _560  and  _563
REMARK  220  A    between atoms: _563  and  _564
REMARK  221  A    between atoms: _567  and  _569
REMARK  222  A    between atoms: _569  and  _570
REMARK  223  A    between atoms: _569  and  _572
REMARK  224  A    between atoms: _572  and  _573
REMARK  225  A    between atoms: _578  and  _579
REMARK  226  A    between atoms: _581  and  _583
REMARK  227  A    between atoms: _583  and  _584
REMARK  228  A    between atoms: _586  and  _588
REMARK  229  A    between atoms: _588  and  _589
REMARK  230  A    between atoms: _592  and  _594
REMARK  231  A    between atoms: _594  and  _595
REMARK  232  A    between atoms: _594  and  _597
REMARK  233  A    between atoms: _597  and  _598
REMARK  234  A    between atoms: _601  and  _603
REMARK  235  A    between atoms: _603  and  _604
REMARK  236  A    between atoms: _603  and  _606
REMARK  237  A    between atoms: _606  and  _607
REMARK  238  A    between atoms: _609  and  _611
REMARK  239  A    between atoms: _611  and  _612
REMARK  240  A    between atoms: _611  and  _614
REMARK  241  A    between atoms: _617  and  _619
REMARK  242  A    between atoms: _619  and  _620
REMARK  243  A    between atoms: _619  and  _622
REMARK  244  A    between atoms: _622  and  _623
REMARK  245  A    between atoms: _628  and  _630
REMARK  246  A    between atoms: _630  and  _631
REMARK  247  A    between atoms: _630  and  _633
REMARK  248  A    between atoms: _633  and  _634
REMARK  249  A    between atoms: _644  and  _646
REMARK  250  A    between atoms: _646  and  _647
REMARK  251  A    between atoms: _646  and  _649
REMARK  252  A    between atoms: _649  and  _650
REMARK  253  A    between atoms: _650  and  _651
REMARK  254  A    between atoms: _653  and  _655
REMARK  255  A    between atoms: _655  and  _656
REMARK  256  A    between atoms: _655  and  _658
REMARK  257  A    between atoms: _658  and  _659
REMARK  258  A    between atoms: _662  and  _664
REMARK  259  A    between atoms: _664  and  _665
REMARK  260  A    between atoms: _664  and  _667
REMARK  261  A    between atoms: _667  and  _668
REMARK  262  A    between atoms: _673  and  _675
REMARK  263  A    between atoms: _675  and  _676
REMARK  264  A    between atoms: _678  and  _680
REMARK  265  A    between atoms: _680  and  _681
REMARK  266  A    between atoms: _680  and  _683
REMARK  267  A    between atoms: _683  and  _684
REMARK  268  A    between atoms: _689  and  _690
REMARK  269  A    between atoms: _692  and  _694
REMARK  270  A    between atoms: _694  and  _695
REMARK  271  A    between atoms: _694  and  _697
REMARK  272  A    between atoms: _697  and  _698
REMARK  273  A    between atoms: _698  and  _699
REMARK  274  A    between atoms: _702  and  _704
REMARK  275  A    between atoms: _704  and  _705
REMARK  276  A    between atoms: _704  and  _707
REMARK  277  A    between atoms: _707  and  _708
REMARK                            x       y       z     vdW  Elec       q    Type
REMARK                         _______ _______ _______ _____ _____    ______ ____
ROOT
ATOM      1  CA  VAL A   1      14.773  58.809  68.447  0.00  0.00    +0.133 C 
ENDROOT
BRANCH   1   2
ATOM      2  CB  VAL A   1      13.879  59.698  69.377  0.00  0.00    +0.023 C 
ATOM      3  CG2 VAL A   1      13.725  58.998  70.735  0.00  0.00    +0.002 C 
ATOM      4  CG1 VAL A   1      12.463  59.875  68.764  0.00  0.00    +0.002 C 
ENDBRANCH   1   2
BRANCH   1   5
ATOM      5  N   VAL A   1      16.107  58.657  69.012  0.00  0.00    -0.239 NA
ATOM      6  H   VAL A   1      16.377  59.204  69.855  0.00  0.00    +0.142 HD
ENDBRANCH   1   5
BRANCH   1   7
ATOM      7  C   VAL A   1      14.789  59.350  67.024  0.00  0.00    +0.224 C 
ATOM      8  O   VAL A   1      14.156  58.781  66.128  0.00  0.00    -0.287 OA
ENDBRANCH   1   7
TORSDOF 3
REMARK  Name = ../refined-set-2016/1h22/1h22_pocket.pdb
REMARK  277 active torsions:
REMARK  status: ('A' for Active; 'I' for Inactive)
REMARK    1  A    between atoms: _1  and  _3
REMARK    2  A    between atoms: _3  and  _4
REMARK    3  A    between atoms: _3  and  _6
REMARK    4  A    between atoms: _6  and  _7
REMARK    5  A    between atoms: _7  and  _8
REMARK    6  A    between atoms: _13  and  _15
REMARK    7  A    between atoms: _15  and  _16
REMARK    8  A    between atoms: _15  and  _18
REMARK    9  A    between atoms: _18  and  _19
REMARK   10  A    between atoms: _24  and  _25
REMARK   11  A    between atoms: _27  and  _29
REMARK   12  A    between atoms: _29  and  _30
REMARK   13  A    between atoms: _29  and  _32
REMARK   14  A    between atoms: _35  and  _37
REMARK   15  A    between atoms: _37  and  _38
REMARK   16  A    between atoms: _37  and  _40
REMARK   17  A    between atoms: _40  and  _41
REMARK   18  A    between atoms: _44  and  _46
REMARK   19  A    between atoms: _46  and  _47
REMARK   20  A    between atoms: _46  and  _49
REMARK   21  A    between atoms: _49  and  _50
REMARK   22  A    between atoms: _50  and  _51
REMARK   23  A    between atoms: _54  and  _56
REMARK   24  A    between atoms: _56  and  _57
REMARK   25  A    between atoms: _56  and  _59
REMARK   26  A    between atoms: _59  and  _60
REMARK   27  A    between atoms: _60  and  _61
REMARK   28  A    between atoms: _66  and  _68
REMARK   29  A    between atoms: _68  and  _69
REMARK   30  A    between atoms: _68  and  _71
REMARK   31  A    between atoms: _71  and  _72
REMARK   32  A    between atoms: _78  and  _80
REMARK   33  A    between atoms: _80  and  _81
REMARK   34  A    between atoms: _83  and  _85
REMARK   35  A    between atoms: _85  and  _86
REMARK   36  A    between atoms: _85  and  _88
REMARK   37  A    between atoms: _88  and  _89
REMARK   38  A    between atoms: _91  and  _93
REMARK   39  A    between atoms: _93  and  _94
REMARK   40  A    between atoms: _93  and  _96
REMARK   41  A    between atoms: _96  and  _97
REMARK   42  A    between atoms: _97  and  _98
REMARK   43  A    between atoms: _100  and  _102
REMARK   44  A    between atoms: _102  and  _103
REMARK   45  A    between atoms: _102  and  _105
REMARK   46  A    between atoms: _105  and  _106
REMARK   47  A    between atoms: _116  and  _118
REMARK   48  A    between atoms: _118  and  _119
REMARK   49  A    between atoms: _118  and  _121
REMARK   50  A    between atoms: _121  and  _122
REMARK   51  A    between atoms: _128  and  _129
REMARK   52  A    between atoms: _134  and  _136
REMARK   53  A    between atoms: _136  and  _137
REMARK   54  A    between atoms: _136  and  _139
REMARK   55  A    between atoms: _139  and  _140
REMARK   56  A    between atoms: _150  and  _152
REMARK   57  A    between atoms: _152  and  _153
REMARK   58  A    between atoms: _152  and  _155
REMARK   59  A    between atoms: _155  and  _156
REMARK   60  A    between atoms: _159  and  _161
REMARK   61  A    between atoms: _161  and  _162
REMARK   62  A    between atoms: _161  and  _164
REMARK   63  A    between atoms: _164  and  _165
REMARK   64  A    between atoms: _170  and  _171
REMARK   65  A    between atoms: _173  and  _175
REMARK   66  A    between atoms: _175  and  _176
REMARK   67  A    between atoms: _178  and  _180
REMARK   68  A    between atoms: _180  and  _181
REMARK   69  A    between atoms: _183  and  _185
REMARK   70  A    between atoms: _185  and  _186
REMARK   71  A    between atoms: _188  and  _190
REMARK   72  A    between atoms: _190  and  _191
REMARK   73  A    between atoms: _190  and  _193
REMARK   74  A    between atoms: _193  and  _194
REMARK   75  A    between atoms: _200  and  _202
REMARK   76  A    between atoms: _202  and  _203
REMARK   77  A    between atoms: _202  and  _205
REMARK   78  A    between atoms: _205  and  _206
REMARK   79  A    between atoms: _211  and  _212
REMARK   80  A    between atoms: _214  and  _216
REMARK   81  A    between atoms: _216  and  _217
REMARK   82  A    between atoms: _216  and  _219
REMARK   83  A    between atoms: _219  and  _220
REMARK   84  A    between atoms: _222  and  _224
REMARK   85  A    between atoms: _224  and  _225
REMARK   86  A    between atoms: _227  and  _229
REMARK   87  A    between atoms: _229  and  _230
REMARK   88  A    between atoms: _229  and  _232
REMARK   89  A    between atoms: _232  and  _233
REMARK   90  A    between atoms: _235  and  _237
REMARK   91  A    between atoms: _237  and  _238
REMARK   92  A    between atoms: _237  and  _240
REMARK   93  A    between atoms: _240  and  _241
REMARK   94  A    between atoms: _243  and  _245
REMARK   95  A    between atoms: _245  and  _246
REMARK   96  A    between atoms: _245  and  _248
REMARK   97  A    between atoms: _248  and  _249
REMARK   98  A    between atoms: _252  and  _254
REMARK   99  A    between atoms: _254  and  _255
REMARK  100  A    between atoms: _254  and  _257
REMARK  101  A    between atoms: _257  and  _258
REMARK  102  A    between atoms: _261  and  _263
REMARK  103  A    between atoms: _263  and  _264
REMARK  104  A    between atoms: _263  and  _266
REMARK  105  A    between atoms: _269  and  _271
REMARK  106  A    between atoms: _271  and  _272
REMARK  107  A    between atoms: _271  and  _274
REMARK  108  A    between atoms: _274  and  _275
REMARK  109  A    between atoms: _280  and  _281
REMARK  110  A    between atoms: _283  and  _285
REMARK  111  A    between atoms: _285  and  _286
REMARK  112  A    between atoms: _285  and  _288
REMARK  113  A    between atoms: _288  and  _289
REMARK  114  A    between atoms: _294  and  _295
REMARK  115  A    between atoms: _297  and  _299
REMARK  116  A    between atoms: _299  and  _300
REMARK  117  A    between atoms: _299  and  _302
REMARK  118  A    between atoms: _305  and  _307
REMARK  119  A    between atoms: _307  and  _308
REMARK  120  A    between atoms: _307  and  _310
REMARK  121  A    between atoms: _310  and  _311
REMARK  122  A    between atoms: _311  and  _312
REMARK  123  A    between atoms: _315  and  _317
REMARK  124  A    between atoms: _317  and  _318
REMARK  125  A    between atoms: _317  and  _320
REMARK  126  A    between atoms: _320  and  _321
REMARK  127  A    between atoms: _323  and  _325
REMARK  128  A    between atoms: _325  and  _326
REMARK  129  A    between atoms: _329  and  _331
REMARK  130  A    between atoms: _331  and  _332
REMARK  131  A    between atoms: _334  and  _336
REMARK  132  A    between atoms: _336  and  _337
REMARK  133  A    between atoms: _336  and  _339
REMARK  134  A    between atoms: _339  and  _340
REMARK  135  A    between atoms: _342  and  _344
REMARK  136  A    between atoms: _344  and  _345
REMARK  137  A    between atoms: _344  and  _347
REMARK  138  A    between atoms: _347  and  _348
REMARK  139  A    between atoms: _358  and  _360
REMARK  140  A    between atoms: _360  and  _361
REMARK  141  A    between atoms: _360  and  _363
REMARK  142  A    between atoms: _363  and  _364
REMARK  143  A    between atoms: _364  and  _365
REMARK  144  A    between atoms: _368  and  _370
REMARK  145  A    between atoms: _370  and  _371
REMARK  146  A    between atoms: _370  and  _373
REMARK  147  A    between atoms: _373  and  _374
REMARK  148  A    between atoms: _384  and  _386
REMARK  149  A    between atoms: _386  and  _387
REMARK  150  A    between atoms: _386  and  _389
REMARK  151  A    between atoms: _389  and  _390
REMARK  152  A    between atoms: _395  and  _397
REMARK  153  A    between atoms: _397  and  _398
REMARK  154  A    between atoms: _397  and  _400
REMARK  155  A    between atoms: _400  and  _401
REMARK  156  A    between atoms: _404  and  _406
REMARK  157  A    between atoms: _406  and  _407
REMARK  158  A    between atoms: _406  and  _409
REMARK  159  A    between atoms: _409  and  _410
REMARK  160  A    between atoms: _416  and  _418
REMARK  161  A    between atoms: _418  and  _419
REMARK  162  A    between atoms: _418  and  _421
REMARK  163  A    between atoms: _421  and  _422
REMARK  164  A    between atoms: _425  and  _427
REMARK  165  A    between atoms: _427  and  _428
REMARK  166  A    between atoms: _427  and  _430
REMARK  167  A    between atoms: _430  and  _431
REMARK  168  A    between atoms: _433  and  _435
REMARK  169  A    between atoms: _435  and  _436
REMARK  170  A    between atoms: _435  and  _438
REMARK  171  A    between atoms: _438  and  _439
REMARK  172  A    between atoms: _442  and  _444
REMARK  173  A    between atoms: _444  and  _445
REMARK  174  A    between atoms: _444  and  _447
REMARK  175  A    between atoms: _447  and  _448
REMARK  176  A    between atoms: _454  and  _456
REMARK  177  A    between atoms: _456  and  _457
REMARK  178  A    between atoms: _456  and  _459
REMARK  179  A    between atoms: _459  and  _460
REMARK  180  A    between atoms: _460  and  _461
REMARK  181  A    between atoms: _461  and  _462
REMARK  182  A    between atoms: _471  and  _473
REMARK  183  A    between atoms: _473  and  _474
REMARK  184  A    between atoms: _473  and  _476
REMARK  185  A    between atoms: _476  and  _477
REMARK  186  A    between atoms: _483  and  _485
REMARK  187  A    between atoms: _485  and  _486
REMARK  188  A    between atoms: _485  and  _488
REMARK  189  A    between atoms: _488  and  _489
REMARK  190  A    between atoms: _491  and  _493
REMARK  191  A    between atoms: _493  and  _494
REMARK  192  A    between atoms: _493  and  _496
REMARK  193  A    between atoms: _496  and  _497
REMARK  194  A    between atoms: _502  and  _504
REMARK  195  A    between atoms: _504  and  _505
REMARK  196  A    between atoms: _504  and  _507
REMARK  197  A    between atoms: _507  and  _508
REMARK  198  A    between atoms: _508  and  _509
REMARK  199  A    between atoms: _512  and  _514
REMARK  200  A    between atoms: _514  and  _515
REMARK  201  A    between atoms: _517  and  _519
REMARK  202  A    between atoms: _519  and  _520
REMARK  203  A    between atoms: _519  and  _522
REMARK  204  A    between atoms: _522  and  _523
REMARK  205  A    between atoms: _525  and  _527
REMARK  206  A    between atoms: _527  and  _528
REMARK  207  A    between atoms: _527  and  _530
REMARK  208  A    between atoms: _530  and  _531
REMARK  209  A    between atoms: _537  and  _539
REMARK  210  A    between atoms: _539  and  _540
REMARK  211  A    between atoms: _539  and  _542
REMARK  212  A    between atoms: _542  and  _543
REMARK  213  A    between atoms: _549  and  _551
REMARK  214  A    between atoms: _551  and  _552
REMARK  215  A    between atoms: _551  and  _554
REMARK  216  A    between atoms: _554  and  _555
REMARK  217  A    between atoms: _558  and  _560
REMARK  218  A    between atoms: _560  and  _561
REMARK  219  A    between atoms: _560  and  _563
REMARK  220  A    between atoms: _563  and  _564
REMARK  221  A    between atoms: _567  and  _569
REMARK  222  A    between atoms: _569  and  _570
REMARK  223  A    between atoms: _569  and  _572
REMARK  224  A    between atoms: _572  and  _573
REMARK  225  A    between atoms: _578  and  _579
REMARK  226  A    between atoms: _581  and  _583
REMARK  227  A    between atoms: _583  and  _584
REMARK  228  A    between atoms: _586  and  _588
REMARK  229  A    between atoms: _588  and  _589
REMARK  230  A    between atoms: _592  and  _594
REMARK  231  A    between atoms: _594  and  _595
REMARK  232  A    between atoms: _594  and  _597
REMARK  233  A    between atoms: _597  and  _598
REMARK  234  A    between atoms: _601  and  _603
REMARK  235  A    between atoms: _603  and  _604
REMARK  236  A    between atoms: _603  and  _606
REMARK  237  A    between atoms: _606  and  _607
REMARK  238  A    between atoms: _609  and  _611
REMARK  239  A    between atoms: _611  and  _612
REMARK  240  A    between atoms: _611  and  _614
REMARK  241  A    between atoms: _617  and  _619
REMARK  242  A    between atoms: _619  and  _620
REMARK  243  A    between atoms: _619  and  _622
REMARK  244  A    between atoms: _622  and  _623
REMARK  245  A    between atoms: _628  and  _630
REMARK  246  A    between atoms: _630  and  _631
REMARK  247  A    between atoms: _630  and  _633
REMARK  248  A    between atoms: _633  and  _634
REMARK  249  A    between atoms: _644  and  _646
REMARK  250  A    between atoms: _646  and  _647
REMARK  251  A    between atoms: _646  and  _649
REMARK  252  A    between atoms: _649  and  _650
REMARK  253  A    between atoms: _650  and  _651
REMARK  254  A    between atoms: _653  and  _655
REMARK  255  A    between atoms: _655  and  _656
REMARK  256  A    between atoms: _655  and  _658
REMARK  257  A    between atoms: _658  and  _659
REMARK  258  A    between atoms: _662  and  _664
REMARK  259  A    between atoms: _664  and  _665
REMARK  260  A    between atoms: _664  and  _667
REMARK  261  A    between atoms: _667  and  _668
REMARK  262  A    between atoms: _673  and  _675
REMARK  263  A    between atoms: _675  and  _676
REMARK  264  A    between atoms: _678  and  _680
REMARK  265  A    between atoms: _680  and  _681
REMARK  266  A    between atoms: _680  and  _683
REMARK  267  A    between atoms: _683  and  _684
REMARK  268  A    between atoms: _689  and  _690
REMARK  269  A    between atoms: _692  and  _694
REMARK  270  A    between atoms: _694  and  _695
REMARK  271  A    between atoms: _694  and  _697
REMARK  272  A    between atoms: _697  and  _698
REMARK  273  A    between atoms: _698  and  _699
REMARK  274  A    between atoms: _702  and  _704
REMARK  275  A    between atoms: _704  and  _705
REMARK  276  A    between atoms: _704  and  _707
REMARK  277  A    between atoms: _707  and  _708
REMARK                            x       y       z     vdW  Elec       q    Type
REMARK                         _______ _______ _______ _____ _____    ______ ____
ROOT
ATOM      1  CB  ASN A   1      11.740  57.838  64.228  0.00  0.00    +0.110 C 
ENDROOT
BRANCH   1   2
ATOM      2  CG  ASN A   1      11.270  56.833  65.280  0.00  0.00    +0.221 C 
ATOM      3  ND2 ASN A   1      11.689  57.022  66.558  0.00  0.00    -0.329 N 
ATOM      4 HD21 ASN A   1      11.382  56.370  67.308  0.00  0.00    +0.145 HD
ATOM      5 HD22 ASN A   1      12.317  57.819  66.787  0.00  0.00    +0.145 HD
ATOM      6  OD1 ASN A   1      10.520  55.900  64.943  0.00  0.00    -0.275 OA
ENDBRANCH   1   2
BRANCH   1   7
ATOM      7  CA  ASN A   1      12.624  57.191  63.181  0.00  0.00    +0.142 C 
BRANCH   7   8
ATOM      8  N   ASN A   1      13.880  56.899  63.818  0.00  0.00    -0.239 NA
ATOM      9  H   ASN A   1      14.250  57.532  64.556  0.00  0.00    +0.142 HD
ENDBRANCH   7   8
BRANCH   7  10
ATOM     10  C   ASN A   1      12.618  58.030  61.938  0.00  0.00    +0.225 C 
ATOM     11  O   ASN A   1      11.691  57.937  61.094  0.00  0.00    -0.287 OA
ENDBRANCH   7  10
ENDBRANCH   1   7
TORSDOF 4
REMARK  Name = ../refined-set-2016/1h22/1h22_pocket.pdb
REMARK  277 active torsions:
REMARK  status: ('A' for Active; 'I' for Inactive)
REMARK    1  A    between atoms: _1  and  _3
REMARK    2  A    between atoms: _3  and  _4
REMARK    3  A    between atoms: _3  and  _6
REMARK    4  A    between atoms: _6  and  _7
REMARK    5  A    between atoms: _7  and  _8
REMARK    6  A    between atoms: _13  and  _15
REMARK    7  A    between atoms: _15  and  _16
REMARK    8  A    between atoms: _15  and  _18
REMARK    9  A    between atoms: _18  and  _19
REMARK   10  A    between atoms: _24  and  _25
REMARK   11  A    between atoms: _27  and  _29
REMARK   12  A    between atoms: _29  and  _30
REMARK   13  A    between atoms: _29  and  _32
REMARK   14  A    between atoms: _35  and  _37
REMARK   15  A    between atoms: _37  and  _38
REMARK   16  A    between atoms: _37  and  _40
REMARK   17  A    between atoms: _40  and  _41
REMARK   18  A    between atoms: _44  and  _46
REMARK   19  A    between atoms: _46  and  _47
REMARK   20  A    between atoms: _46  and  _49
REMARK   21  A    between atoms: _49  and  _50
REMARK   22  A    between atoms: _50  and  _51
REMARK   23  A    between atoms: _54  and  _56
REMARK   24  A    between atoms: _56  and  _57
REMARK   25  A    between atoms: _56  and  _59
REMARK   26  A    between atoms: _59  and  _60
REMARK   27  A    between atoms: _60  and  _61
REMARK   28  A    between atoms: _66  and  _68
REMARK   29  A    between atoms: _68  and  _69
REMARK   30  A    between atoms: _68  and  _71
REMARK   31  A    between atoms: _71  and  _72
REMARK   32  A    between atoms: _78  and  _80
REMARK   33  A    between atoms: _80  and  _81
REMARK   34  A    between atoms: _83  and  _85
REMARK   35  A    between atoms: _85  and  _86
REMARK   36  A    between atoms: _85  and  _88
REMARK   37  A    between atoms: _88  and  _89
REMARK   38  A    between atoms: _91  and  _93
REMARK   39  A    between atoms: _93  and  _94
REMARK   40  A    between atoms: _93  and  _96
REMARK   41  A    between atoms: _96  and  _97
REMARK   42  A    between atoms: _97  and  _98
REMARK   43  A    between atoms: _100  and  _102
REMARK   44  A    between atoms: _102  and  _103
REMARK   45  A    between atoms: _102  and  _105
REMARK   46  A    between atoms: _105  and  _106
REMARK   47  A    between atoms: _116  and  _118
REMARK   48  A    between atoms: _118  and  _119
REMARK   49  A    between atoms: _118  and  _121
REMARK   50  A    between atoms: _121  and  _122
REMARK   51  A    between atoms: _128  and  _129
REMARK   52  A    between atoms: _134  and  _136
REMARK   53  A    between atoms: _136  and  _137
REMARK   54  A    between atoms: _136  and  _139
REMARK   55  A    between atoms: _139  and  _140
REMARK   56  A    between atoms: _150  and  _152
REMARK   57  A    between atoms: _152  and  _153
REMARK   58  A    between atoms: _152  and  _155
REMARK   59  A    between atoms: _155  and  _156
REMARK   60  A    between atoms: _159  and  _161
REMARK   61  A    between atoms: _161  and  _162
REMARK   62  A    between atoms: _161  and  _164
REMARK   63  A    between atoms: _164  and  _165
REMARK   64  A    between atoms: _170  and  _171
REMARK   65  A    between atoms: _173  and  _175
REMARK   66  A    between atoms: _175  and  _176
REMARK   67  A    between atoms: _178  and  _180
REMARK   68  A    between atoms: _180  and  _181
REMARK   69  A    between atoms: _183  and  _185
REMARK   70  A    between atoms: _185  and  _186
REMARK   71  A    between atoms: _188  and  _190
REMARK   72  A    between atoms: _190  and  _191
REMARK   73  A    between atoms: _190  and  _193
REMARK   74  A    between atoms: _193  and  _194
REMARK   75  A    between atoms: _200  and  _202
REMARK   76  A    between atoms: _202  and  _203
REMARK   77  A    between atoms: _202  and  _205
REMARK   78  A    between atoms: _205  and  _206
REMARK   79  A    between atoms: _211  and  _212
REMARK   80  A    between atoms: _214  and  _216
REMARK   81  A    between atoms: _216  and  _217
REMARK   82  A    between atoms: _216  and  _219
REMARK   83  A    between atoms: _219  and  _220
REMARK   84  A    between atoms: _222  and  _224
REMARK   85  A    between atoms: _224  and  _225
REMARK   86  A    between atoms: _227  and  _229
REMARK   87  A    between atoms: _229  and  _230
REMARK   88  A    between atoms: _229  and  _232
REMARK   89  A    between atoms: _232  and  _233
REMARK   90  A    between atoms: _235  and  _237
REMARK   91  A    between atoms: _237  and  _238
REMARK   92  A    between atoms: _237  and  _240
REMARK   93  A    between atoms: _240  and  _241
REMARK   94  A    between atoms: _243  and  _245
REMARK   95  A    between atoms: _245  and  _246
REMARK   96  A    between atoms: _245  and  _248
REMARK   97  A    between atoms: _248  and  _249
REMARK   98  A    between atoms: _252  and  _254
REMARK   99  A    between atoms: _254  and  _255
REMARK  100  A    between atoms: _254  and  _257
REMARK  101  A    between atoms: _257  and  _258
REMARK  102  A    between atoms: _261  and  _263
REMARK  103  A    between atoms: _263  and  _264
REMARK  104  A    between atoms: _263  and  _266
REMARK  105  A    between atoms: _269  and  _271
REMARK  106  A    between atoms: _271  and  _272
REMARK  107  A    between atoms: _271  and  _274
REMARK  108  A    between atoms: _274  and  _275
REMARK  109  A    between atoms: _280  and  _281
REMARK  110  A    between atoms: _283  and  _285
REMARK  111  A    between atoms: _285  and  _286
REMARK  112  A    between atoms: _285  and  _288
REMARK  113  A    between atoms: _288  and  _289
REMARK  114  A    between atoms: _294  and  _295
REMARK  115  A    between atoms: _297  and  _299
REMARK  116  A    between atoms: _299  and  _300
REMARK  117  A    between atoms: _299  and  _302
REMARK  118  A    between atoms: _305  and  _307
REMARK  119  A    between atoms: _307  and  _308
REMARK  120  A    between atoms: _307  and  _310
REMARK  121  A    between atoms: _310  and  _311
REMARK  122  A    between atoms: _311  and  _312
REMARK  123  A    between atoms: _315  and  _317
REMARK  124  A    between atoms: _317  and  _318
REMARK  125  A    between atoms: _317  and  _320
REMARK  126  A    between atoms: _320  and  _321
REMARK  127  A    between atoms: _323  and  _325
REMARK  128  A    between atoms: _325  and  _326
REMARK  129  A    between atoms: _329  and  _331
REMARK  130  A    between atoms: _331  and  _332
REMARK  131  A    between atoms: _334  and  _336
REMARK  132  A    between atoms: _336  and  _337
REMARK  133  A    between atoms: _336  and  _339
REMARK  134  A    between atoms: _339  and  _340
REMARK  135  A    between atoms: _342  and  _344
REMARK  136  A    between atoms: _344  and  _345
REMARK  137  A    between atoms: _344  and  _347
REMARK  138  A    between atoms: _347  and  _348
REMARK  139  A    between atoms: _358  and  _360
REMARK  140  A    between atoms: _360  and  _361
REMARK  141  A    between atoms: _360  and  _363
REMARK  142  A    between atoms: _363  and  _364
REMARK  143  A    between atoms: _364  and  _365
REMARK  144  A    between atoms: _368  and  _370
REMARK  145  A    between atoms: _370  and  _371
REMARK  146  A    between atoms: _370  and  _373
REMARK  147  A    between atoms: _373  and  _374
REMARK  148  A    between atoms: _384  and  _386
REMARK  149  A    between atoms: _386  and  _387
REMARK  150  A    between atoms: _386  and  _389
REMARK  151  A    between atoms: _389  and  _390
REMARK  152  A    between atoms: _395  and  _397
REMARK  153  A    between atoms: _397  and  _398
REMARK  154  A    between atoms: _397  and  _400
REMARK  155  A    between atoms: _400  and  _401
REMARK  156  A    between atoms: _404  and  _406
REMARK  157  A    between atoms: _406  and  _407
REMARK  158  A    between atoms: _406  and  _409
REMARK  159  A    between atoms: _409  and  _410
REMARK  160  A    between atoms: _416  and  _418
REMARK  161  A    between atoms: _418  and  _419
REMARK  162  A    between atoms: _418  and  _421
REMARK  163  A    between atoms: _421  and  _422
REMARK  164  A    between atoms: _425  and  _427
REMARK  165  A    between atoms: _427  and  _428
REMARK  166  A    between atoms: _427  and  _430
REMARK  167  A    between atoms: _430  and  _431
REMARK  168  A    between atoms: _433  and  _435
REMARK  169  A    between atoms: _435  and  _436
REMARK  170  A    between atoms: _435  and  _438
REMARK  171  A    between atoms: _438  and  _439
REMARK  172  A    between atoms: _442  and  _444
REMARK  173  A    between atoms: _444  and  _445
REMARK  174  A    between atoms: _444  and  _447
REMARK  175  A    between atoms: _447  and  _448
REMARK  176  A    between atoms: _454  and  _456
REMARK  177  A    between atoms: _456  and  _457
REMARK  178  A    between atoms: _456  and  _459
REMARK  179  A    between atoms: _459  and  _460
REMARK  180  A    between atoms: _460  and  _461
REMARK  181  A    between atoms: _461  and  _462
REMARK  182  A    between atoms: _471  and  _473
REMARK  183  A    between atoms: _473  and  _474
REMARK  184  A    between atoms: _473  and  _476
REMARK  185  A    between atoms: _476  and  _477
REMARK  186  A    between atoms: _483  and  _485
REMARK  187  A    between atoms: _485  and  _486
REMARK  188  A    between atoms: _485  and  _488
REMARK  189  A    between atoms: _488  and  _489
REMARK  190  A    between atoms: _491  and  _493
REMARK  191  A    between atoms: _493  and  _494
REMARK  192  A    between atoms: _493  and  _496
REMARK  193  A    between atoms: _496  and  _497
REMARK  194  A    between atoms: _502  and  _504
REMARK  195  A    between atoms: _504  and  _505
REMARK  196  A    between atoms: _504  and  _507
REMARK  197  A    between atoms: _507  and  _508
REMARK  198  A    between atoms: _508  and  _509
REMARK  199  A    between atoms: _512  and  _514
REMARK  200  A    between atoms: _514  and  _515
REMARK  201  A    between atoms: _517  and  _519
REMARK  202  A    between atoms: _519  and  _520
REMARK  203  A    between atoms: _519  and  _522
REMARK  204  A    between atoms: _522  and  _523
REMARK  205  A    between atoms: _525  and  _527
REMARK  206  A    between atoms: _527  and  _528
REMARK  207  A    between atoms: _527  and  _530
REMARK  208  A    between atoms: _530  and  _531
REMARK  209  A    between atoms: _537  and  _539
REMARK  210  A    between atoms: _539  and  _540
REMARK  211  A    between atoms: _539  and  _542
REMARK  212  A    between atoms: _542  and  _543
REMARK  213  A    between atoms: _549  and  _551
REMARK  214  A    between atoms: _551  and  _552
REMARK  215  A    between atoms: _551  and  _554
REMARK  216  A    between atoms: _554  and  _555
REMARK  217  A    between atoms: _558  and  _560
REMARK  218  A    between atoms: _560  and  _561
REMARK  219  A    between atoms: _560  and  _563
REMARK  220  A    between atoms: _563  and  _564
REMARK  221  A    between atoms: _567  and  _569
REMARK  222  A    between atoms: _569  and  _570
REMARK  223  A    between atoms: _569  and  _572
REMARK  224  A    between atoms: _572  and  _573
REMARK  225  A    between atoms: _578  and  _579
REMARK  226  A    between atoms: _581  and  _583
REMARK  227  A    between atoms: _583  and  _584
REMARK  228  A    between atoms: _586  and  _588
REMARK  229  A    between atoms: _588  and  _589
REMARK  230  A    between atoms: _592  and  _594
REMARK  231  A    between atoms: _594  and  _595
REMARK  232  A    between atoms: _594  and  _597
REMARK  233  A    between atoms: _597  and  _598
REMARK  234  A    between atoms: _601  and  _603
REMARK  235  A    between atoms: _603  and  _604
REMARK  236  A    between atoms: _603  and  _606
REMARK  237  A    between atoms: _606  and  _607
REMARK  238  A    between atoms: _609  and  _611
REMARK  239  A    between atoms: _611  and  _612
REMARK  240  A    between atoms: _611  and  _614
REMARK  241  A    between atoms: _617  and  _619
REMARK  242  A    between atoms: _619  and  _620
REMARK  243  A    between atoms: _619  and  _622
REMARK  244  A    between atoms: _622  and  _623
REMARK  245  A    between atoms: _628  and  _630
REMARK  246  A    between atoms: _630  and  _631
REMARK  247  A    between atoms: _630  and  _633
REMARK  248  A    between atoms: _633  and  _634
REMARK  249  A    between atoms: _644  and  _646
REMARK  250  A    between atoms: _646  and  _647
REMARK  251  A    between atoms: _646  and  _649
REMARK  252  A    between atoms: _649  and  _650
REMARK  253  A    between atoms: _650  and  _651
REMARK  254  A    between atoms: _653  and  _655
REMARK  255  A    between atoms: _655  and  _656
REMARK  256  A    between atoms: _655  and  _658
REMARK  257  A    between atoms: _658  and  _659
REMARK  258  A    between atoms: _662  and  _664
REMARK  259  A    between atoms: _664  and  _665
REMARK  260  A    between atoms: _664  and  _667
REMARK  261  A    between atoms: _667  and  _668
REMARK  262  A    between atoms: _673  and  _675
REMARK  263  A    between atoms: _675  and  _676
REMARK  264  A    between atoms: _678  and  _680
REMARK  265  A    between atoms: _680  and  _681
REMARK  266  A    between atoms: _680  and  _683
REMARK  267  A    between atoms: _683  and  _684
REMARK  268  A    between atoms: _689  and  _690
REMARK  269  A    between atoms: _692  and  _694
REMARK  270  A    between atoms: _694  and  _695
REMARK  271  A    between atoms: _694  and  _697
REMARK  272  A    between atoms: _697  and  _698
REMARK  273  A    between atoms: _698  and  _699
REMARK  274  A    between atoms: _702  and  _704
REMARK  275  A    between atoms: _704  and  _705
REMARK  276  A    between atoms: _704  and  _707
REMARK  277  A    between atoms: _707  and  _708
REMARK                            x       y       z     vdW  Elec       q    Type
REMARK                         _______ _______ _______ _____ _____    ______ ____
ROOT
ATOM      1  CG  TRP A   1       8.810  74.175  71.041  0.00  0.00    -0.002 A 
ATOM      2  CD2 TRP A   1       7.784  73.445  71.695  0.00  0.00    +0.013 A 
ATOM      3  CE3 TRP A   1       7.638  72.921  72.987  0.00  0.00    +0.001 A 
ATOM      4  CZ3 TRP A   1       6.454  72.221  73.299  0.00  0.00    +0.000 A 
ATOM      5  CH2 TRP A   1       5.425  72.062  72.318  0.00  0.00    +0.001 A 
ATOM      6  CZ2 TRP A   1       5.541  72.580  71.056  0.00  0.00    +0.017 A 
ATOM      7  CE2 TRP A   1       6.724  73.263  70.747  0.00  0.00    +0.056 A 
ATOM      8  NE1 TRP A   1       7.109  73.860  69.575  0.00  0.00    -0.352 N 
ATOM      9  HE1 TRP A   1       6.552  73.891  68.697  0.00  0.00    +0.166 HD
ATOM     10  CD1 TRP A   1       8.353  74.410  69.754  0.00  0.00    +0.068 A 
ENDROOT
BRANCH   1  11
ATOM     11  CB  TRP A   1      10.172  74.603  71.641  0.00  0.00    +0.053 C 
BRANCH  11  12
ATOM     12  CA  TRP A   1      10.076  75.739  72.689  0.00  0.00    +0.137 C 
BRANCH  12  13
ATOM     13  N   TRP A   1       9.769  77.034  72.017  0.00  0.00    -0.239 NA
ATOM     14  H   TRP A   1       9.938  77.112  70.994  0.00  0.00    +0.142 HD
ENDBRANCH  12  13
BRANCH  12  15
ATOM     15  C   TRP A   1      11.442  75.867  73.407  0.00  0.00    +0.224 C 
ATOM     16  O   TRP A   1      12.274  76.638  72.969  0.00  0.00    -0.287 OA
ENDBRANCH  12  15
ENDBRANCH  11  12
ENDBRANCH   1  11
TORSDOF 4
REMARK  Name = ../refined-set-2016/1h22/1h22_pocket.pdb
REMARK  277 active torsions:
REMARK  status: ('A' for Active; 'I' for Inactive)
REMARK    1  A    between atoms: _1  and  _3
REMARK    2  A    between atoms: _3  and  _4
REMARK    3  A    between atoms: _3  and  _6
REMARK    4  A    between atoms: _6  and  _7
REMARK    5  A    between atoms: _7  and  _8
REMARK    6  A    between atoms: _13  and  _15
REMARK    7  A    between atoms: _15  and  _16
REMARK    8  A    between atoms: _15  and  _18
REMARK    9  A    between atoms: _18  and  _19
REMARK   10  A    between atoms: _24  and  _25
REMARK   11  A    between atoms: _27  and  _29
REMARK   12  A    between atoms: _29  and  _30
REMARK   13  A    between atoms: _29  and  _32
REMARK   14  A    between atoms: _35  and  _37
REMARK   15  A    between atoms: _37  and  _38
REMARK   16  A    between atoms: _37  and  _40
REMARK   17  A    between atoms: _40  and  _41
REMARK   18  A    between atoms: _44  and  _46
REMARK   19  A    between atoms: _46  and  _47
REMARK   20  A    between atoms: _46  and  _49
REMARK   21  A    between atoms: _49  and  _50
REMARK   22  A    between atoms: _50  and  _51
REMARK   23  A    between atoms: _54  and  _56
REMARK   24  A    between atoms: _56  and  _57
REMARK   25  A    between atoms: _56  and  _59
REMARK   26  A    between atoms: _59  and  _60
REMARK   27  A    between atoms: _60  and  _61
REMARK   28  A    between atoms: _66  and  _68
REMARK   29  A    between atoms: _68  and  _69
REMARK   30  A    between atoms: _68  and  _71
REMARK   31  A    between atoms: _71  and  _72
REMARK   32  A    between atoms: _78  and  _80
REMARK   33  A    between atoms: _80  and  _81
REMARK   34  A    between atoms: _83  and  _85
REMARK   35  A    between atoms: _85  and  _86
REMARK   36  A    between atoms: _85  and  _88
REMARK   37  A    between atoms: _88  and  _89
REMARK   38  A    between atoms: _91  and  _93
REMARK   39  A    between atoms: _93  and  _94
REMARK   40  A    between atoms: _93  and  _96
REMARK   41  A    between atoms: _96  and  _97
REMARK   42  A    between atoms: _97  and  _98
REMARK   43  A    between atoms: _100  and  _102
REMARK   44  A    between atoms: _102  and  _103
REMARK   45  A    between atoms: _102  and  _105
REMARK   46  A    between atoms: _105  and  _106
REMARK   47  A    between atoms: _116  and  _118
REMARK   48  A    between atoms: _118  and  _119
REMARK   49  A    between atoms: _118  and  _121
REMARK   50  A    between atoms: _121  and  _122
REMARK   51  A    between atoms: _128  and  _129
REMARK   52  A    between atoms: _134  and  _136
REMARK   53  A    between atoms: _136  and  _137
REMARK   54  A    between atoms: _136  and  _139
REMARK   55  A    between atoms: _139  and  _140
REMARK   56  A    between atoms: _150  and  _152
REMARK   57  A    between atoms: _152  and  _153
REMARK   58  A    between atoms: _152  and  _155
REMARK   59  A    between atoms: _155  and  _156
REMARK   60  A    between atoms: _159  and  _161
REMARK   61  A    between atoms: _161  and  _162
REMARK   62  A    between atoms: _161  and  _164
REMARK   63  A    between atoms: _164  and  _165
REMARK   64  A    between atoms: _170  and  _171
REMARK   65  A    between atoms: _173  and  _175
REMARK   66  A    between atoms: _175  and  _176
REMARK   67  A    between atoms: _178  and  _180
REMARK   68  A    between atoms: _180  and  _181
REMARK   69  A    between atoms: _183  and  _185
REMARK   70  A    between atoms: _185  and  _186
REMARK   71  A    between atoms: _188  and  _190
REMARK   72  A    between atoms: _190  and  _191
REMARK   73  A    between atoms: _190  and  _193
REMARK   74  A    between atoms: _193  and  _194
REMARK   75  A    between atoms: _200  and  _202
REMARK   76  A    between atoms: _202  and  _203
REMARK   77  A    between atoms: _202  and  _205
REMARK   78  A    between atoms: _205  and  _206
REMARK   79  A    between atoms: _211  and  _212
REMARK   80  A    between atoms: _214  and  _216
REMARK   81  A    between atoms: _216  and  _217
REMARK   82  A    between atoms: _216  and  _219
REMARK   83  A    between atoms: _219  and  _220
REMARK   84  A    between atoms: _222  and  _224
REMARK   85  A    between atoms: _224  and  _225
REMARK   86  A    between atoms: _227  and  _229
REMARK   87  A    between atoms: _229  and  _230
REMARK   88  A    between atoms: _229  and  _232
REMARK   89  A    between atoms: _232  and  _233
REMARK   90  A    between atoms: _235  and  _237
REMARK   91  A    between atoms: _237  and  _238
REMARK   92  A    between atoms: _237  and  _240
REMARK   93  A    between atoms: _240  and  _241
REMARK   94  A    between atoms: _243  and  _245
REMARK   95  A    between atoms: _245  and  _246
REMARK   96  A    between atoms: _245  and  _248
REMARK   97  A    between atoms: _248  and  _249
REMARK   98  A    between atoms: _252  and  _254
REMARK   99  A    between atoms: _254  and  _255
REMARK  100  A    between atoms: _254  and  _257
REMARK  101  A    between atoms: _257  and  _258
REMARK  102  A    between atoms: _261  and  _263
REMARK  103  A    between atoms: _263  and  _264
REMARK  104  A    between atoms: _263  and  _266
REMARK  105  A    between atoms: _269  and  _271
REMARK  106  A    between atoms: _271  and  _272
REMARK  107  A    between atoms: _271  and  _274
REMARK  108  A    between atoms: _274  and  _275
REMARK  109  A    between atoms: _280  and  _281
REMARK  110  A    between atoms: _283  and  _285
REMARK  111  A    between atoms: _285  and  _286
REMARK  112  A    between atoms: _285  and  _288
REMARK  113  A    between atoms: _288  and  _289
REMARK  114  A    between atoms: _294  and  _295
REMARK  115  A    between atoms: _297  and  _299
REMARK  116  A    between atoms: _299  and  _300
REMARK  117  A    between atoms: _299  and  _302
REMARK  118  A    between atoms: _305  and  _307
REMARK  119  A    between atoms: _307  and  _308
REMARK  120  A    between atoms: _307  and  _310
REMARK  121  A    between atoms: _310  and  _311
REMARK  122  A    between atoms: _311  and  _312
REMARK  123  A    between atoms: _315  and  _317
REMARK  124  A    between atoms: _317  and  _318
REMARK  125  A    between atoms: _317  and  _320
REMARK  126  A    between atoms: _320  and  _321
REMARK  127  A    between atoms: _323  and  _325
REMARK  128  A    between atoms: _325  and  _326
REMARK  129  A    between atoms: _329  and  _331
REMARK  130  A    between atoms: _331  and  _332
REMARK  131  A    between atoms: _334  and  _336
REMARK  132  A    between atoms: _336  and  _337
REMARK  133  A    between atoms: _336  and  _339
REMARK  134  A    between atoms: _339  and  _340
REMARK  135  A    between atoms: _342  and  _344
REMARK  136  A    between atoms: _344  and  _345
REMARK  137  A    between atoms: _344  and  _347
REMARK  138  A    between atoms: _347  and  _348
REMARK  139  A    between atoms: _358  and  _360
REMARK  140  A    between atoms: _360  and  _361
REMARK  141  A    between atoms: _360  and  _363
REMARK  142  A    between atoms: _363  and  _364
REMARK  143  A    between atoms: _364  and  _365
REMARK  144  A    between atoms: _368  and  _370
REMARK  145  A    between atoms: _370  and  _371
REMARK  146  A    between atoms: _370  and  _373
REMARK  147  A    between atoms: _373  and  _374
REMARK  148  A    between atoms: _384  and  _386
REMARK  149  A    between atoms: _386  and  _387
REMARK  150  A    between atoms: _386  and  _389
REMARK  151  A    between atoms: _389  and  _390
REMARK  152  A    between atoms: _395  and  _397
REMARK  153  A    between atoms: _397  and  _398
REMARK  154  A    between atoms: _397  and  _400
REMARK  155  A    between atoms: _400  and  _401
REMARK  156  A    between atoms: _404  and  _406
REMARK  157  A    between atoms: _406  and  _407
REMARK  158  A    between atoms: _406  and  _409
REMARK  159  A    between atoms: _409  and  _410
REMARK  160  A    between atoms: _416  and  _418
REMARK  161  A    between atoms: _418  and  _419
REMARK  162  A    between atoms: _418  and  _421
REMARK  163  A    between atoms: _421  and  _422
REMARK  164  A    between atoms: _425  and  _427
REMARK  165  A    between atoms: _427  and  _428
REMARK  166  A    between atoms: _427  and  _430
REMARK  167  A    between atoms: _430  and  _431
REMARK  168  A    between atoms: _433  and  _435
REMARK  169  A    between atoms: _435  and  _436
REMARK  170  A    between atoms: _435  and  _438
REMARK  171  A    between atoms: _438  and  _439
REMARK  172  A    between atoms: _442  and  _444
REMARK  173  A    between atoms: _444  and  _445
REMARK  174  A    between atoms: _444  and  _447
REMARK  175  A    between atoms: _447  and  _448
REMARK  176  A    between atoms: _454  and  _456
REMARK  177  A    between atoms: _456  and  _457
REMARK  178  A    between atoms: _456  and  _459
REMARK  179  A    between atoms: _459  and  _460
REMARK  180  A    between atoms: _460  and  _461
REMARK  181  A    between atoms: _461  and  _462
REMARK  182  A    between atoms: _471  and  _473
REMARK  183  A    between atoms: _473  and  _474
REMARK  184  A    between atoms: _473  and  _476
REMARK  185  A    between atoms: _476  and  _477
REMARK  186  A    between atoms: _483  and  _485
REMARK  187  A    between atoms: _485  and  _486
REMARK  188  A    between atoms: _485  and  _488
REMARK  189  A    between atoms: _488  and  _489
REMARK  190  A    between atoms: _491  and  _493
REMARK  191  A    between atoms: _493  and  _494
REMARK  192  A    between atoms: _493  and  _496
REMARK  193  A    between atoms: _496  and  _497
REMARK  194  A    between atoms: _502  and  _504
REMARK  195  A    between atoms: _504  and  _505
REMARK  196  A    between atoms: _504  and  _507
REMARK  197  A    between atoms: _507  and  _508
REMARK  198  A    between atoms: _508  and  _509
REMARK  199  A    between atoms: _512  and  _514
REMARK  200  A    between atoms: _514  and  _515
REMARK  201  A    between atoms: _517  and  _519
REMARK  202  A    between atoms: _519  and  _520
REMARK  203  A    between atoms: _519  and  _522
REMARK  204  A    between atoms: _522  and  _523
REMARK  205  A    between atoms: _525  and  _527
REMARK  206  A    between atoms: _527  and  _528
REMARK  207  A    between atoms: _527  and  _530
REMARK  208  A    between atoms: _530  and  _531
REMARK  209  A    between atoms: _537  and  _539
REMARK  210  A    between atoms: _539  and  _540
REMARK  211  A    between atoms: _539  and  _542
REMARK  212  A    between atoms: _542  and  _543
REMARK  213  A    between atoms: _549  and  _551
REMARK  214  A    between atoms: _551  and  _552
REMARK  215  A    between atoms: _551  and  _554
REMARK  216  A    between atoms: _554  and  _555
REMARK  217  A    between atoms: _558  and  _560
REMARK  218  A    between atoms: _560  and  _561
REMARK  219  A    between atoms: _560  and  _563
REMARK  220  A    between atoms: _563  and  _564
REMARK  221  A    between atoms: _567  and  _569
REMARK  222  A    between atoms: _569  and  _570
REMARK  223  A    between atoms: _569  and  _572
REMARK  224  A    between atoms: _572  and  _573
REMARK  225  A    between atoms: _578  and  _579
REMARK  226  A    between atoms: _581  and  _583
REMARK  227  A    between atoms: _583  and  _584
REMARK  228  A    between atoms: _586  and  _588
REMARK  229  A    between atoms: _588  and  _589
REMARK  230  A    between atoms: _592  and  _594
REMARK  231  A    between atoms: _594  and  _595
REMARK  232  A    between atoms: _594  and  _597
REMARK  233  A    between atoms: _597  and  _598
REMARK  234  A    between atoms: _601  and  _603
REMARK  235  A    between atoms: _603  and  _604
REMARK  236  A    between atoms: _603  and  _606
REMARK  237  A    between atoms: _606  and  _607
REMARK  238  A    between atoms: _609  and  _611
REMARK  239  A    between atoms: _611  and  _612
REMARK  240  A    between atoms: _611  and  _614
REMARK  241  A    between atoms: _617  and  _619
REMARK  242  A    between atoms: _619  and  _620
REMARK  243  A    between atoms: _619  and  _622
REMARK  244  A    between atoms: _622  and  _623
REMARK  245  A    between atoms: _628  and  _630
REMARK  246  A    between atoms: _630  and  _631
REMARK  247  A    between atoms: _630  and  _633
REMARK  248  A    between atoms: _633  and  _634
REMARK  249  A    between atoms: _644  and  _646
REMARK  250  A    between atoms: _646  and  _647
REMARK  251  A    between atoms: _646  and  _649
REMARK  252  A    between atoms: _649  and  _650
REMARK  253  A    between atoms: _650  and  _651
REMARK  254  A    between atoms: _653  and  _655
REMARK  255  A    between atoms: _655  and  _656
REMARK  256  A    between atoms: _655  and  _658
REMARK  257  A    between atoms: _658  and  _659
REMARK  258  A    between atoms: _662  and  _664
REMARK  259  A    between atoms: _664  and  _665
REMARK  260  A    between atoms: _664  and  _667
REMARK  261  A    between atoms: _667  and  _668
REMARK  262  A    between atoms: _673  and  _675
REMARK  263  A    between atoms: _675  and  _676
REMARK  264  A    between atoms: _678  and  _680
REMARK  265  A    between atoms: _680  and  _681
REMARK  266  A    between atoms: _680  and  _683
REMARK  267  A    between atoms: _683  and  _684
REMARK  268  A    between atoms: _689  and  _690
REMARK  269  A    between atoms: _692  and  _694
REMARK  270  A    between atoms: _694  and  _695
REMARK  271  A    between atoms: _694  and  _697
REMARK  272  A    between atoms: _697  and  _698
REMARK  273  A    between atoms: _698  and  _699
REMARK  274  A    between atoms: _702  and  _704
REMARK  275  A    between atoms: _704  and  _705
REMARK  276  A    between atoms: _704  and  _707
REMARK  277  A    between atoms: _707  and  _708
REMARK                            x       y       z     vdW  Elec       q    Type
REMARK                         _______ _______ _______ _____ _____    ______ ____
ROOT
ATOM      1  CA  MET A   1      14.830  70.600  72.019  0.00  0.00    +0.134 C 
ENDROOT
BRANCH   1   2
ATOM      2  N   MET A   1      15.463  71.281  73.147  0.00  0.00    -0.239 NA
ATOM      3  H   MET A   1      15.051  72.157  73.527  0.00  0.00    +0.142 HD
ENDBRANCH   1   2
BRANCH   1   4
ATOM      4  C   MET A   1      15.514  70.859  70.699  0.00  0.00    +0.224 C 
ATOM      5  O   MET A   1      15.269  70.128  69.733  0.00  0.00    -0.287 OA
ENDBRANCH   1   4
BRANCH   1   6
ATOM      6  CB  MET A   1      13.331  70.941  71.936  0.00  0.00    +0.037 C 
BRANCH   6   7
ATOM      7  CG  MET A   1      12.551  70.368  73.124  0.00  0.00    +0.059 C 
BRANCH   7   8
ATOM      8  SD  MET A   1      10.810  70.958  73.161  0.00  0.00    -0.139 S 
ATOM      9  CE  MET A   1      10.085  69.684  71.883  0.00  0.00    +0.069 C 
ENDBRANCH   7   8
ENDBRANCH   6   7
ENDBRANCH   1   6
TORSDOF 5
REMARK  Name = ../refined-set-2016/1h22/1h22_pocket.pdb
REMARK  277 active torsions:
REMARK  status: ('A' for Active; 'I' for Inactive)
REMARK    1  A    between atoms: _1  and  _3
REMARK    2  A    between atoms: _3  and  _4
REMARK    3  A    between atoms: _3  and  _6
REMARK    4  A    between atoms: _6  and  _7
REMARK    5  A    between atoms: _7  and  _8
REMARK    6  A    between atoms: _13  and  _15
REMARK    7  A    between atoms: _15  and  _16
REMARK    8  A    between atoms: _15  and  _18
REMARK    9  A    between atoms: _18  and  _19
REMARK   10  A    between atoms: _24  and  _25
REMARK   11  A    between atoms: _27  and  _29
REMARK   12  A    between atoms: _29  and  _30
REMARK   13  A    between atoms: _29  and  _32
REMARK   14  A    between atoms: _35  and  _37
REMARK   15  A    between atoms: _37  and  _38
REMARK   16  A    between atoms: _37  and  _40
REMARK   17  A    between atoms: _40  and  _41
REMARK   18  A    between atoms: _44  and  _46
REMARK   19  A    between atoms: _46  and  _47
REMARK   20  A    between atoms: _46  and  _49
REMARK   21  A    between atoms: _49  and  _50
REMARK   22  A    between atoms: _50  and  _51
REMARK   23  A    between atoms: _54  and  _56
REMARK   24  A    between atoms: _56  and  _57
REMARK   25  A    between atoms: _56  and  _59
REMARK   26  A    between atoms: _59  and  _60
REMARK   27  A    between atoms: _60  and  _61
REMARK   28  A    between atoms: _66  and  _68
REMARK   29  A    between atoms: _68  and  _69
REMARK   30  A    between atoms: _68  and  _71
REMARK   31  A    between atoms: _71  and  _72
REMARK   32  A    between atoms: _78  and  _80
REMARK   33  A    between atoms: _80  and  _81
REMARK   34  A    between atoms: _83  and  _85
REMARK   35  A    between atoms: _85  and  _86
REMARK   36  A    between atoms: _85  and  _88
REMARK   37  A    between atoms: _88  and  _89
REMARK   38  A    between atoms: _91  and  _93
REMARK   39  A    between atoms: _93  and  _94
REMARK   40  A    between atoms: _93  and  _96
REMARK   41  A    between atoms: _96  and  _97
REMARK   42  A    between atoms: _97  and  _98
REMARK   43  A    between atoms: _100  and  _102
REMARK   44  A    between atoms: _102  and  _103
REMARK   45  A    between atoms: _102  and  _105
REMARK   46  A    between atoms: _105  and  _106
REMARK   47  A    between atoms: _116  and  _118
REMARK   48  A    between atoms: _118  and  _119
REMARK   49  A    between atoms: _118  and  _121
REMARK   50  A    between atoms: _121  and  _122
REMARK   51  A    between atoms: _128  and  _129
REMARK   52  A    between atoms: _134  and  _136
REMARK   53  A    between atoms: _136  and  _137
REMARK   54  A    between atoms: _136  and  _139
REMARK   55  A    between atoms: _139  and  _140
REMARK   56  A    between atoms: _150  and  _152
REMARK   57  A    between atoms: _152  and  _153
REMARK   58  A    between atoms: _152  and  _155
REMARK   59  A    between atoms: _155  and  _156
REMARK   60  A    between atoms: _159  and  _161
REMARK   61  A    between atoms: _161  and  _162
REMARK   62  A    between atoms: _161  and  _164
REMARK   63  A    between atoms: _164  and  _165
REMARK   64  A    between atoms: _170  and  _171
REMARK   65  A    between atoms: _173  and  _175
REMARK   66  A    between atoms: _175  and  _176
REMARK   67  A    between atoms: _178  and  _180
REMARK   68  A    between atoms: _180  and  _181
REMARK   69  A    between atoms: _183  and  _185
REMARK   70  A    between atoms: _185  and  _186
REMARK   71  A    between atoms: _188  and  _190
REMARK   72  A    between atoms: _190  and  _191
REMARK   73  A    between atoms: _190  and  _193
REMARK   74  A    between atoms: _193  and  _194
REMARK   75  A    between atoms: _200  and  _202
REMARK   76  A    between atoms: _202  and  _203
REMARK   77  A    between atoms: _202  and  _205
REMARK   78  A    between atoms: _205  and  _206
REMARK   79  A    between atoms: _211  and  _212
REMARK   80  A    between atoms: _214  and  _216
REMARK   81  A    between atoms: _216  and  _217
REMARK   82  A    between atoms: _216  and  _219
REMARK   83  A    between atoms: _219  and  _220
REMARK   84  A    between atoms: _222  and  _224
REMARK   85  A    between atoms: _224  and  _225
REMARK   86  A    between atoms: _227  and  _229
REMARK   87  A    between atoms: _229  and  _230
REMARK   88  A    between atoms: _229  and  _232
REMARK   89  A    between atoms: _232  and  _233
REMARK   90  A    between atoms: _235  and  _237
REMARK   91  A    between atoms: _237  and  _238
REMARK   92  A    between atoms: _237  and  _240
REMARK   93  A    between atoms: _240  and  _241
REMARK   94  A    between atoms: _243  and  _245
REMARK   95  A    between atoms: _245  and  _246
REMARK   96  A    between atoms: _245  and  _248
REMARK   97  A    between atoms: _248  and  _249
REMARK   98  A    between atoms: _252  and  _254
REMARK   99  A    between atoms: _254  and  _255
REMARK  100  A    between atoms: _254  and  _257
REMARK  101  A    between atoms: _257  and  _258
REMARK  102  A    between atoms: _261  and  _263
REMARK  103  A    between atoms: _263  and  _264
REMARK  104  A    between atoms: _263  and  _266
REMARK  105  A    between atoms: _269  and  _271
REMARK  106  A    between atoms: _271  and  _272
REMARK  107  A    between atoms: _271  and  _274
REMARK  108  A    between atoms: _274  and  _275
REMARK  109  A    between atoms: _280  and  _281
REMARK  110  A    between atoms: _283  and  _285
REMARK  111  A    between atoms: _285  and  _286
REMARK  112  A    between atoms: _285  and  _288
REMARK  113  A    between atoms: _288  and  _289
REMARK  114  A    between atoms: _294  and  _295
REMARK  115  A    between atoms: _297  and  _299
REMARK  116  A    between atoms: _299  and  _300
REMARK  117  A    between atoms: _299  and  _302
REMARK  118  A    between atoms: _305  and  _307
REMARK  119  A    between atoms: _307  and  _308
REMARK  120  A    between atoms: _307  and  _310
REMARK  121  A    between atoms: _310  and  _311
REMARK  122  A    between atoms: _311  and  _312
REMARK  123  A    between atoms: _315  and  _317
REMARK  124  A    between atoms: _317  and  _318
REMARK  125  A    between atoms: _317  and  _320
REMARK  126  A    between atoms: _320  and  _321
REMARK  127  A    between atoms: _323  and  _325
REMARK  128  A    between atoms: _325  and  _326
REMARK  129  A    between atoms: _329  and  _331
REMARK  130  A    between atoms: _331  and  _332
REMARK  131  A    between atoms: _334  and  _336
REMARK  132  A    between atoms: _336  and  _337
REMARK  133  A    between atoms: _336  and  _339
REMARK  134  A    between atoms: _339  and  _340
REMARK  135  A    between atoms: _342  and  _344
REMARK  136  A    between atoms: _344  and  _345
REMARK  137  A    between atoms: _344  and  _347
REMARK  138  A    between atoms: _347  and  _348
REMARK  139  A    between atoms: _358  and  _360
REMARK  140  A    between atoms: _360  and  _361
REMARK  141  A    between atoms: _360  and  _363
REMARK  142  A    between atoms: _363  and  _364
REMARK  143  A    between atoms: _364  and  _365
REMARK  144  A    between atoms: _368  and  _370
REMARK  145  A    between atoms: _370  and  _371
REMARK  146  A    between atoms: _370  and  _373
REMARK  147  A    between atoms: _373  and  _374
REMARK  148  A    between atoms: _384  and  _386
REMARK  149  A    between atoms: _386  and  _387
REMARK  150  A    between atoms: _386  and  _389
REMARK  151  A    between atoms: _389  and  _390
REMARK  152  A    between atoms: _395  and  _397
REMARK  153  A    between atoms: _397  and  _398
REMARK  154  A    between atoms: _397  and  _400
REMARK  155  A    between atoms: _400  and  _401
REMARK  156  A    between atoms: _404  and  _406
REMARK  157  A    between atoms: _406  and  _407
REMARK  158  A    between atoms: _406  and  _409
REMARK  159  A    between atoms: _409  and  _410
REMARK  160  A    between atoms: _416  and  _418
REMARK  161  A    between atoms: _418  and  _419
REMARK  162  A    between atoms: _418  and  _421
REMARK  163  A    between atoms: _421  and  _422
REMARK  164  A    between atoms: _425  and  _427
REMARK  165  A    between atoms: _427  and  _428
REMARK  166  A    between atoms: _427  and  _430
REMARK  167  A    between atoms: _430  and  _431
REMARK  168  A    between atoms: _433  and  _435
REMARK  169  A    between atoms: _435  and  _436
REMARK  170  A    between atoms: _435  and  _438
REMARK  171  A    between atoms: _438  and  _439
REMARK  172  A    between atoms: _442  and  _444
REMARK  173  A    between atoms: _444  and  _445
REMARK  174  A    between atoms: _444  and  _447
REMARK  175  A    between atoms: _447  and  _448
REMARK  176  A    between atoms: _454  and  _456
REMARK  177  A    between atoms: _456  and  _457
REMARK  178  A    between atoms: _456  and  _459
REMARK  179  A    between atoms: _459  and  _460
REMARK  180  A    between atoms: _460  and  _461
REMARK  181  A    between atoms: _461  and  _462
REMARK  182  A    between atoms: _471  and  _473
REMARK  183  A    between atoms: _473  and  _474
REMARK  184  A    between atoms: _473  and  _476
REMARK  185  A    between atoms: _476  and  _477
REMARK  186  A    between atoms: _483  and  _485
REMARK  187  A    between atoms: _485  and  _486
REMARK  188  A    between atoms: _485  and  _488
REMARK  189  A    between atoms: _488  and  _489
REMARK  190  A    between atoms: _491  and  _493
REMARK  191  A    between atoms: _493  and  _494
REMARK  192  A    between atoms: _493  and  _496
REMARK  193  A    between atoms: _496  and  _497
REMARK  194  A    between atoms: _502  and  _504
REMARK  195  A    between atoms: _504  and  _505
REMARK  196  A    between atoms: _504  and  _507
REMARK  197  A    between atoms: _507  and  _508
REMARK  198  A    between atoms: _508  and  _509
REMARK  199  A    between atoms: _512  and  _514
REMARK  200  A    between atoms: _514  and  _515
REMARK  201  A    between atoms: _517  and  _519
REMARK  202  A    between atoms: _519  and  _520
REMARK  203  A    between atoms: _519  and  _522
REMARK  204  A    between atoms: _522  and  _523
REMARK  205  A    between atoms: _525  and  _527
REMARK  206  A    between atoms: _527  and  _528
REMARK  207  A    between atoms: _527  and  _530
REMARK  208  A    between atoms: _530  and  _531
REMARK  209  A    between atoms: _537  and  _539
REMARK  210  A    between atoms: _539  and  _540
REMARK  211  A    between atoms: _539  and  _542
REMARK  212  A    between atoms: _542  and  _543
REMARK  213  A    between atoms: _549  and  _551
REMARK  214  A    between atoms: _551  and  _552
REMARK  215  A    between atoms: _551  and  _554
REMARK  216  A    between atoms: _554  and  _555
REMARK  217  A    between atoms: _558  and  _560
REMARK  218  A    between atoms: _560  and  _561
REMARK  219  A    between atoms: _560  and  _563
REMARK  220  A    between atoms: _563  and  _564
REMARK  221  A    between atoms: _567  and  _569
REMARK  222  A    between atoms: _569  and  _570
REMARK  223  A    between atoms: _569  and  _572
REMARK  224  A    between atoms: _572  and  _573
REMARK  225  A    between atoms: _578  and  _579
REMARK  226  A    between atoms: _581  and  _583
REMARK  227  A    between atoms: _583  and  _584
REMARK  228  A    between atoms: _586  and  _588
REMARK  229  A    between atoms: _588  and  _589
REMARK  230  A    between atoms: _592  and  _594
REMARK  231  A    between atoms: _594  and  _595
REMARK  232  A    between atoms: _594  and  _597
REMARK  233  A    between atoms: _597  and  _598
REMARK  234  A    between atoms: _601  and  _603
REMARK  235  A    between atoms: _603  and  _604
REMARK  236  A    between atoms: _603  and  _606
REMARK  237  A    between atoms: _606  and  _607
REMARK  238  A    between atoms: _609  and  _611
REMARK  239  A    between atoms: _611  and  _612
REMARK  240  A    between atoms: _611  and  _614
REMARK  241  A    between atoms: _617  and  _619
REMARK  242  A    between atoms: _619  and  _620
REMARK  243  A    between atoms: _619  and  _622
REMARK  244  A    between atoms: _622  and  _623
REMARK  245  A    between atoms: _628  and  _630
REMARK  246  A    between atoms: _630  and  _631
REMARK  247  A    between atoms: _630  and  _633
REMARK  248  A    between atoms: _633  and  _634
REMARK  249  A    between atoms: _644  and  _646
REMARK  250  A    between atoms: _646  and  _647
REMARK  251  A    between atoms: _646  and  _649
REMARK  252  A    between atoms: _649  and  _650
REMARK  253  A    between atoms: _650  and  _651
REMARK  254  A    between atoms: _653  and  _655
REMARK  255  A    between atoms: _655  and  _656
REMARK  256  A    between atoms: _655  and  _658
REMARK  257  A    between atoms: _658  and  _659
REMARK  258  A    between atoms: _662  and  _664
REMARK  259  A    between atoms: _664  and  _665
REMARK  260  A    between atoms: _664  and  _667
REMARK  261  A    between atoms: _667  and  _668
REMARK  262  A    between atoms: _673  and  _675
REMARK  263  A    between atoms: _675  and  _676
REMARK  264  A    between atoms: _678  and  _680
REMARK  265  A    between atoms: _680  and  _681
REMARK  266  A    between atoms: _680  and  _683
REMARK  267  A    between atoms: _683  and  _684
REMARK  268  A    between atoms: _689  and  _690
REMARK  269  A    between atoms: _692  and  _694
REMARK  270  A    between atoms: _694  and  _695
REMARK  271  A    between atoms: _694  and  _697
REMARK  272  A    between atoms: _697  and  _698
REMARK  273  A    between atoms: _698  and  _699
REMARK  274  A    between atoms: _702  and  _704
REMARK  275  A    between atoms: _704  and  _705
REMARK  276  A    between atoms: _704  and  _707
REMARK  277  A    between atoms: _707  and  _708
REMARK                            x       y       z     vdW  Elec       q    Type
REMARK                         _______ _______ _______ _____ _____    ______ ____
ROOT
ATOM      1  CA  TYR A   4      10.462  73.646  62.308  0.00  0.00    +0.153 C 
ENDROOT
BRANCH   1   2
ATOM      2  C   TYR A   4      11.206  74.249  61.137  0.00  0.00    +0.241 C 
ATOM      3  O   TYR A   4      11.592  75.444  61.165  0.00  0.00    -0.273 OA
ATOM      4  N   GLU A   5      11.426  73.429  60.097  0.00  0.00    -0.297 N 
ATOM      5  H   GLU A   5      11.205  72.416  60.177  0.00  0.00    +0.150 HD
BRANCH   4   6
ATOM      6  CA  GLU A   5      11.978  73.963  58.849  0.00  0.00    +0.149 C 
BRANCH   6   7
ATOM      7  C   GLU A   5      10.771  74.431  57.966  0.00  0.00    +0.241 C 
ATOM      8  N   ILE A   6       9.576  73.967  58.301  0.00  0.00    -0.298 N 
ATOM      9  H   ILE A   6       9.463  73.376  59.149  0.00  0.00    +0.150 HD
ATOM     10  O   GLU A   5      10.905  75.251  57.033  0.00  0.00    -0.273 OA
BRANCH   8  11
ATOM     11  CA  ILE A   6       8.429  74.288  57.478  0.00  0.00    +0.137 C 
BRANCH  11  12
ATOM     12  CB  ILE A   6       7.113  73.601  58.020  0.00  0.00    +0.026 C 
ATOM     13  CG2 ILE A   6       5.875  74.156  57.228  0.00  0.00    +0.002 C 
BRANCH  12  14
ATOM     14  CG1 ILE A   6       7.191  72.070  57.850  0.00  0.00    +0.002 C 
ATOM     15  CD1 ILE A   6       6.133  71.333  58.663  0.00  0.00    +0.000 C 
ENDBRANCH  12  14
ENDBRANCH  11  12
BRANCH  11  16
ATOM     16  C   ILE A   6       8.206  75.807  57.349  0.00  0.00    +0.227 C 
ATOM     17  O   ILE A   6       8.032  76.339  56.224  0.00  0.00    -0.286 OA
ENDBRANCH  11  16
ENDBRANCH   8  11
ENDBRANCH   6   7
BRANCH   6  18
ATOM     18  CB  GLU A   5      12.807  72.904  58.069  0.00  0.00    +0.041 C 
BRANCH  18  19
ATOM     19  CG  GLU A   5      11.975  71.992  57.106  0.00  0.00    +0.116 C 
BRANCH  19  20
ATOM     20  CD  GLU A   5      10.996  71.026  57.837  0.00  0.00    +0.365 C 
ATOM     21  OE2 GLU A   5      11.079  70.875  59.074  0.00  0.00    -0.246 OA
ATOM     22  OE1 GLU A   5      10.159  70.399  57.167  0.00  0.00    -0.246 OA
ENDBRANCH  19  20
ENDBRANCH  18  19
ENDBRANCH   6  18
ENDBRANCH   4   6
ENDBRANCH   1   2
BRANCH   1  24
ATOM     23  C   GLY A   3       9.043  71.845  61.678  0.00  0.00    +0.243 C 
ATOM     24  N   TYR A   4      10.142  72.251  62.323  0.00  0.00    -0.297 N 
ATOM     25  H   TYR A   4      10.749  71.570  62.823  0.00  0.00    +0.150 HD
ATOM     26  O   GLY A   3       8.347  72.606  60.995  0.00  0.00    -0.273 OA
BRANCH  23  27
ATOM     27  CA  GLY A   3       8.678  70.380  61.778  0.00  0.00    +0.176 C 
BRANCH  27  30
ATOM     28  C   HIS A   2       9.695  69.098  63.527  0.00  0.00    +0.241 C 
ATOM     29  O   HIS A   2       8.857  69.502  64.360  0.00  0.00    -0.273 OA
ATOM     30  N   GLY A   3       9.711  69.506  62.270  0.00  0.00    -0.295 N 
ATOM     31  H   GLY A   3      10.473  69.195  61.634  0.00  0.00    +0.150 HD
BRANCH  28  32
ATOM     32  CA  HIS A   2      10.782  68.109  63.936  0.00  0.00    +0.155 C 
BRANCH  32  34
ATOM     33  C   ILE A   1      12.079  69.947  64.854  0.00  0.00    +0.238 C 
ATOM     34  N   HIS A   2      11.536  68.739  64.990  0.00  0.00    -0.297 N 
ATOM     35  H   HIS A   2      11.661  68.232  65.889  0.00  0.00    +0.150 HD
ATOM     36  O   ILE A   1      12.094  70.586  63.792  0.00  0.00    -0.274 OA
BRANCH  33  37
ATOM     37  CA  ILE A   1      12.750  70.453  66.133  0.00  0.00    +0.145 C 
BRANCH  37  38
ATOM     38  N   ILE A   1      13.900  71.325  66.008  0.00  0.00    -0.238 NA
ATOM     39  H   ILE A   1      13.765  72.326  66.254  0.00  0.00    +0.142 HD
ENDBRANCH  37  38
BRANCH  37  40
ATOM     40  CB  ILE A   1      11.711  71.165  67.042  0.00  0.00    +0.025 C 
ATOM     41  CG2 ILE A   1      10.446  70.309  67.276  0.00  0.00    +0.002 C 
BRANCH  40  42
ATOM     42  CG1 ILE A   1      12.412  71.510  68.381  0.00  0.00    +0.002 C 
ATOM     43  CD1 ILE A   1      11.660  72.513  69.210  0.00  0.00    +0.000 C 
ENDBRANCH  40  42
ENDBRANCH  37  40
ENDBRANCH  33  37
ENDBRANCH  32  34
BRANCH  32  44
ATOM     44  CB  HIS A   2      10.122  66.861  64.512  0.00  0.00    +0.076 C 
BRANCH  44  45
ATOM     45  CG  HIS A   2       9.450  65.995  63.495  0.00  0.00    +0.082 A 
ATOM     46  CD2 HIS A   2       8.169  65.541  63.413  0.00  0.00    +0.115 A 
ATOM     47  NE2 HIS A   2       8.111  64.695  62.319  0.00  0.00    -0.221 NA
ATOM     48  CE1 HIS A   2       9.313  64.633  61.757  0.00  0.00    +0.199 A 
ATOM     49  ND1 HIS A   2      10.141  65.418  62.442  0.00  0.00    -0.227 NA
ENDBRANCH  44  45
ENDBRANCH  32  44
ENDBRANCH  28  32
ENDBRANCH  27  30
ENDBRANCH  23  27
ENDBRANCH   1  24
BRANCH   1  50
ATOM     50  CB  TYR A   4      11.038  74.014  63.676  0.00  0.00    +0.055 C 
BRANCH  50  51
ATOM     51  CG  TYR A   4       9.888  74.063  64.660  0.00  0.00    -0.020 A 
ATOM     52  CD2 TYR A   4       9.324  72.868  65.184  0.00  0.00    -0.001 A 
ATOM     53  CE2 TYR A   4       8.128  72.889  65.944  0.00  0.00    +0.036 A 
ATOM     54  CZ  TYR A   4       7.477  74.125  66.168  0.00  0.00    +0.134 A 
ATOM     55  CE1 TYR A   4       8.013  75.325  65.667  0.00  0.00    +0.036 A 
ATOM     56  CD1 TYR A   4       9.230  75.281  64.925  0.00  0.00    -0.001 A 
BRANCH  54  57
ATOM     57  OH  TYR A   4       6.291  74.160  66.839  0.00  0.00    -0.506 OA
ATOM     58  HH  TYR A   4       5.586  74.517  66.243  0.00  0.00    +0.292 HD
ENDBRANCH  54  57
ENDBRANCH  50  51
ENDBRANCH   1  50
TORSDOF 24
REMARK  Name = ../refined-set-2016/1h22/1h22_pocket.pdb
REMARK  277 active torsions:
REMARK  status: ('A' for Active; 'I' for Inactive)
REMARK    1  A    between atoms: _1  and  _3
REMARK    2  A    between atoms: _3  and  _4
REMARK    3  A    between atoms: _3  and  _6
REMARK    4  A    between atoms: _6  and  _7
REMARK    5  A    between atoms: _7  and  _8
REMARK    6  A    between atoms: _13  and  _15
REMARK    7  A    between atoms: _15  and  _16
REMARK    8  A    between atoms: _15  and  _18
REMARK    9  A    between atoms: _18  and  _19
REMARK   10  A    between atoms: _24  and  _25
REMARK   11  A    between atoms: _27  and  _29
REMARK   12  A    between atoms: _29  and  _30
REMARK   13  A    between atoms: _29  and  _32
REMARK   14  A    between atoms: _35  and  _37
REMARK   15  A    between atoms: _37  and  _38
REMARK   16  A    between atoms: _37  and  _40
REMARK   17  A    between atoms: _40  and  _41
REMARK   18  A    between atoms: _44  and  _46
REMARK   19  A    between atoms: _46  and  _47
REMARK   20  A    between atoms: _46  and  _49
REMARK   21  A    between atoms: _49  and  _50
REMARK   22  A    between atoms: _50  and  _51
REMARK   23  A    between atoms: _54  and  _56
REMARK   24  A    between atoms: _56  and  _57
REMARK   25  A    between atoms: _56  and  _59
REMARK   26  A    between atoms: _59  and  _60
REMARK   27  A    between atoms: _60  and  _61
REMARK   28  A    between atoms: _66  and  _68
REMARK   29  A    between atoms: _68  and  _69
REMARK   30  A    between atoms: _68  and  _71
REMARK   31  A    between atoms: _71  and  _72
REMARK   32  A    between atoms: _78  and  _80
REMARK   33  A    between atoms: _80  and  _81
REMARK   34  A    between atoms: _83  and  _85
REMARK   35  A    between atoms: _85  and  _86
REMARK   36  A    between atoms: _85  and  _88
REMARK   37  A    between atoms: _88  and  _89
REMARK   38  A    between atoms: _91  and  _93
REMARK   39  A    between atoms: _93  and  _94
REMARK   40  A    between atoms: _93  and  _96
REMARK   41  A    between atoms: _96  and  _97
REMARK   42  A    between atoms: _97  and  _98
REMARK   43  A    between atoms: _100  and  _102
REMARK   44  A    between atoms: _102  and  _103
REMARK   45  A    between atoms: _102  and  _105
REMARK   46  A    between atoms: _105  and  _106
REMARK   47  A    between atoms: _116  and  _118
REMARK   48  A    between atoms: _118  and  _119
REMARK   49  A    between atoms: _118  and  _121
REMARK   50  A    between atoms: _121  and  _122
REMARK   51  A    between atoms: _128  and  _129
REMARK   52  A    between atoms: _134  and  _136
REMARK   53  A    between atoms: _136  and  _137
REMARK   54  A    between atoms: _136  and  _139
REMARK   55  A    between atoms: _139  and  _140
REMARK   56  A    between atoms: _150  and  _152
REMARK   57  A    between atoms: _152  and  _153
REMARK   58  A    between atoms: _152  and  _155
REMARK   59  A    between atoms: _155  and  _156
REMARK   60  A    between atoms: _159  and  _161
REMARK   61  A    between atoms: _161  and  _162
REMARK   62  A    between atoms: _161  and  _164
REMARK   63  A    between atoms: _164  and  _165
REMARK   64  A    between atoms: _170  and  _171
REMARK   65  A    between atoms: _173  and  _175
REMARK   66  A    between atoms: _175  and  _176
REMARK   67  A    between atoms: _178  and  _180
REMARK   68  A    between atoms: _180  and  _181
REMARK   69  A    between atoms: _183  and  _185
REMARK   70  A    between atoms: _185  and  _186
REMARK   71  A    between atoms: _188  and  _190
REMARK   72  A    between atoms: _190  and  _191
REMARK   73  A    between atoms: _190  and  _193
REMARK   74  A    between atoms: _193  and  _194
REMARK   75  A    between atoms: _200  and  _202
REMARK   76  A    between atoms: _202  and  _203
REMARK   77  A    between atoms: _202  and  _205
REMARK   78  A    between atoms: _205  and  _206
REMARK   79  A    between atoms: _211  and  _212
REMARK   80  A    between atoms: _214  and  _216
REMARK   81  A    between atoms: _216  and  _217
REMARK   82  A    between atoms: _216  and  _219
REMARK   83  A    between atoms: _219  and  _220
REMARK   84  A    between atoms: _222  and  _224
REMARK   85  A    between atoms: _224  and  _225
REMARK   86  A    between atoms: _227  and  _229
REMARK   87  A    between atoms: _229  and  _230
REMARK   88  A    between atoms: _229  and  _232
REMARK   89  A    between atoms: _232  and  _233
REMARK   90  A    between atoms: _235  and  _237
REMARK   91  A    between atoms: _237  and  _238
REMARK   92  A    between atoms: _237  and  _240
REMARK   93  A    between atoms: _240  and  _241
REMARK   94  A    between atoms: _243  and  _245
REMARK   95  A    between atoms: _245  and  _246
REMARK   96  A    between atoms: _245  and  _248
REMARK   97  A    between atoms: _248  and  _249
REMARK   98  A    between atoms: _252  and  _254
REMARK   99  A    between atoms: _254  and  _255
REMARK  100  A    between atoms: _254  and  _257
REMARK  101  A    between atoms: _257  and  _258
REMARK  102  A    between atoms: _261  and  _263
REMARK  103  A    between atoms: _263  and  _264
REMARK  104  A    between atoms: _263  and  _266
REMARK  105  A    between atoms: _269  and  _271
REMARK  106  A    between atoms: _271  and  _272
REMARK  107  A    between atoms: _271  and  _274
REMARK  108  A    between atoms: _274  and  _275
REMARK  109  A    between atoms: _280  and  _281
REMARK  110  A    between atoms: _283  and  _285
REMARK  111  A    between atoms: _285  and  _286
REMARK  112  A    between atoms: _285  and  _288
REMARK  113  A    between atoms: _288  and  _289
REMARK  114  A    between atoms: _294  and  _295
REMARK  115  A    between atoms: _297  and  _299
REMARK  116  A    between atoms: _299  and  _300
REMARK  117  A    between atoms: _299  and  _302
REMARK  118  A    between atoms: _305  and  _307
REMARK  119  A    between atoms: _307  and  _308
REMARK  120  A    between atoms: _307  and  _310
REMARK  121  A    between atoms: _310  and  _311
REMARK  122  A    between atoms: _311  and  _312
REMARK  123  A    between atoms: _315  and  _317
REMARK  124  A    between atoms: _317  and  _318
REMARK  125  A    between atoms: _317  and  _320
REMARK  126  A    between atoms: _320  and  _321
REMARK  127  A    between atoms: _323  and  _325
REMARK  128  A    between atoms: _325  and  _326
REMARK  129  A    between atoms: _329  and  _331
REMARK  130  A    between atoms: _331  and  _332
REMARK  131  A    between atoms: _334  and  _336
REMARK  132  A    between atoms: _336  and  _337
REMARK  133  A    between atoms: _336  and  _339
REMARK  134  A    between atoms: _339  and  _340
REMARK  135  A    between atoms: _342  and  _344
REMARK  136  A    between atoms: _344  and  _345
REMARK  137  A    between atoms: _344  and  _347
REMARK  138  A    between atoms: _347  and  _348
REMARK  139  A    between atoms: _358  and  _360
REMARK  140  A    between atoms: _360  and  _361
REMARK  141  A    between atoms: _360  and  _363
REMARK  142  A    between atoms: _363  and  _364
REMARK  143  A    between atoms: _364  and  _365
REMARK  144  A    between atoms: _368  and  _370
REMARK  145  A    between atoms: _370  and  _371
REMARK  146  A    between atoms: _370  and  _373
REMARK  147  A    between atoms: _373  and  _374
REMARK  148  A    between atoms: _384  and  _386
REMARK  149  A    between atoms: _386  and  _387
REMARK  150  A    between atoms: _386  and  _389
REMARK  151  A    between atoms: _389  and  _390
REMARK  152  A    between atoms: _395  and  _397
REMARK  153  A    between atoms: _397  and  _398
REMARK  154  A    between atoms: _397  and  _400
REMARK  155  A    between atoms: _400  and  _401
REMARK  156  A    between atoms: _404  and  _406
REMARK  157  A    between atoms: _406  and  _407
REMARK  158  A    between atoms: _406  and  _409
REMARK  159  A    between atoms: _409  and  _410
REMARK  160  A    between atoms: _416  and  _418
REMARK  161  A    between atoms: _418  and  _419
REMARK  162  A    between atoms: _418  and  _421
REMARK  163  A    between atoms: _421  and  _422
REMARK  164  A    between atoms: _425  and  _427
REMARK  165  A    between atoms: _427  and  _428
REMARK  166  A    between atoms: _427  and  _430
REMARK  167  A    between atoms: _430  and  _431
REMARK  168  A    between atoms: _433  and  _435
REMARK  169  A    between atoms: _435  and  _436
REMARK  170  A    between atoms: _435  and  _438
REMARK  171  A    between atoms: _438  and  _439
REMARK  172  A    between atoms: _442  and  _444
REMARK  173  A    between atoms: _444  and  _445
REMARK  174  A    between atoms: _444  and  _447
REMARK  175  A    between atoms: _447  and  _448
REMARK  176  A    between atoms: _454  and  _456
REMARK  177  A    between atoms: _456  and  _457
REMARK  178  A    between atoms: _456  and  _459
REMARK  179  A    between atoms: _459  and  _460
REMARK  180  A    between atoms: _460  and  _461
REMARK  181  A    between atoms: _461  and  _462
REMARK  182  A    between atoms: _471  and  _473
REMARK  183  A    between atoms: _473  and  _474
REMARK  184  A    between atoms: _473  and  _476
REMARK  185  A    between atoms: _476  and  _477
REMARK  186  A    between atoms: _483  and  _485
REMARK  187  A    between atoms: _485  and  _486
REMARK  188  A    between atoms: _485  and  _488
REMARK  189  A    between atoms: _488  and  _489
REMARK  190  A    between atoms: _491  and  _493
REMARK  191  A    between atoms: _493  and  _494
REMARK  192  A    between atoms: _493  and  _496
REMARK  193  A    between atoms: _496  and  _497
REMARK  194  A    between atoms: _502  and  _504
REMARK  195  A    between atoms: _504  and  _505
REMARK  196  A    between atoms: _504  and  _507
REMARK  197  A    between atoms: _507  and  _508
REMARK  198  A    between atoms: _508  and  _509
REMARK  199  A    between atoms: _512  and  _514
REMARK  200  A    between atoms: _514  and  _515
REMARK  201  A    between atoms: _517  and  _519
REMARK  202  A    between atoms: _519  and  _520
REMARK  203  A    between atoms: _519  and  _522
REMARK  204  A    between atoms: _522  and  _523
REMARK  205  A    between atoms: _525  and  _527
REMARK  206  A    between atoms: _527  and  _528
REMARK  207  A    between atoms: _527  and  _530
REMARK  208  A    between atoms: _530  and  _531
REMARK  209  A    between atoms: _537  and  _539
REMARK  210  A    between atoms: _539  and  _540
REMARK  211  A    between atoms: _539  and  _542
REMARK  212  A    between atoms: _542  and  _543
REMARK  213  A    between atoms: _549  and  _551
REMARK  214  A    between atoms: _551  and  _552
REMARK  215  A    between atoms: _551  and  _554
REMARK  216  A    between atoms: _554  and  _555
REMARK  217  A    between atoms: _558  and  _560
REMARK  218  A    between atoms: _560  and  _561
REMARK  219  A    between atoms: _560  and  _563
REMARK  220  A    between atoms: _563  and  _564
REMARK  221  A    between atoms: _567  and  _569
REMARK  222  A    between atoms: _569  and  _570
REMARK  223  A    between atoms: _569  and  _572
REMARK  224  A    between atoms: _572  and  _573
REMARK  225  A    between atoms: _578  and  _579
REMARK  226  A    between atoms: _581  and  _583
REMARK  227  A    between atoms: _583  and  _584
REMARK  228  A    between atoms: _586  and  _588
REMARK  229  A    between atoms: _588  and  _589
REMARK  230  A    between atoms: _592  and  _594
REMARK  231  A    between atoms: _594  and  _595
REMARK  232  A    between atoms: _594  and  _597
REMARK  233  A    between atoms: _597  and  _598
REMARK  234  A    between atoms: _601  and  _603
REMARK  235  A    between atoms: _603  and  _604
REMARK  236  A    between atoms: _603  and  _606
REMARK  237  A    between atoms: _606  and  _607
REMARK  238  A    between atoms: _609  and  _611
REMARK  239  A    between atoms: _611  and  _612
REMARK  240  A    between atoms: _611  and  _614
REMARK  241  A    between atoms: _617  and  _619
REMARK  242  A    between atoms: _619  and  _620
REMARK  243  A    between atoms: _619  and  _622
REMARK  244  A    between atoms: _622  and  _623
REMARK  245  A    between atoms: _628  and  _630
REMARK  246  A    between atoms: _630  and  _631
REMARK  247  A    between atoms: _630  and  _633
REMARK  248  A    between atoms: _633  and  _634
REMARK  249  A    between atoms: _644  and  _646
REMARK  250  A    between atoms: _646  and  _647
REMARK  251  A    between atoms: _646  and  _649
REMARK  252  A    between atoms: _649  and  _650
REMARK  253  A    between atoms: _650  and  _651
REMARK  254  A    between atoms: _653  and  _655
REMARK  255  A    between atoms: _655  and  _656
REMARK  256  A    between atoms: _655  and  _658
REMARK  257  A    between atoms: _658  and  _659
REMARK  258  A    between atoms: _662  and  _664
REMARK  259  A    between atoms: _664  and  _665
REMARK  260  A    between atoms: _664  and  _667
REMARK  261  A    between atoms: _667  and  _668
REMARK  262  A    between atoms: _673  and  _675
REMARK  263  A    between atoms: _675  and  _676
REMARK  264  A    between atoms: _678  and  _680
REMARK  265  A    between atoms: _680  and  _681
REMARK  266  A    between atoms: _680  and  _683
REMARK  267  A    between atoms: _683  and  _684
REMARK  268  A    between atoms: _689  and  _690
REMARK  269  A    between atoms: _692  and  _694
REMARK  270  A    between atoms: _694  and  _695
REMARK  271  A    between atoms: _694  and  _697
REMARK  272  A    between atoms: _697  and  _698
REMARK  273  A    between atoms: _698  and  _699
REMARK  274  A    between atoms: _702  and  _704
REMARK  275  A    between atoms: _704  and  _705
REMARK  276  A    between atoms: _704  and  _707
REMARK  277  A    between atoms: _707  and  _708
REMARK                            x       y       z     vdW  Elec       q    Type
REMARK                         _______ _______ _______ _____ _____    ______ ____
ROOT
ATOM      1  O   HOH     1      -4.166  69.814  62.460  0.00  0.00    +0.000 OA
ENDROOT
TORSDOF 0
REMARK  Name = ../refined-set-2016/1h22/1h22_pocket.pdb
REMARK  277 active torsions:
REMARK  status: ('A' for Active; 'I' for Inactive)
REMARK    1  A    between atoms: _1  and  _3
REMARK    2  A    between atoms: _3  and  _4
REMARK    3  A    between atoms: _3  and  _6
REMARK    4  A    between atoms: _6  and  _7
REMARK    5  A    between atoms: _7  and  _8
REMARK    6  A    between atoms: _13  and  _15
REMARK    7  A    between atoms: _15  and  _16
REMARK    8  A    between atoms: _15  and  _18
REMARK    9  A    between atoms: _18  and  _19
REMARK   10  A    between atoms: _24  and  _25
REMARK   11  A    between atoms: _27  and  _29
REMARK   12  A    between atoms: _29  and  _30
REMARK   13  A    between atoms: _29  and  _32
REMARK   14  A    between atoms: _35  and  _37
REMARK   15  A    between atoms: _37  and  _38
REMARK   16  A    between atoms: _37  and  _40
REMARK   17  A    between atoms: _40  and  _41
REMARK   18  A    between atoms: _44  and  _46
REMARK   19  A    between atoms: _46  and  _47
REMARK   20  A    between atoms: _46  and  _49
REMARK   21  A    between atoms: _49  and  _50
REMARK   22  A    between atoms: _50  and  _51
REMARK   23  A    between atoms: _54  and  _56
REMARK   24  A    between atoms: _56  and  _57
REMARK   25  A    between atoms: _56  and  _59
REMARK   26  A    between atoms: _59  and  _60
REMARK   27  A    between atoms: _60  and  _61
REMARK   28  A    between atoms: _66  and  _68
REMARK   29  A    between atoms: _68  and  _69
REMARK   30  A    between atoms: _68  and  _71
REMARK   31  A    between atoms: _71  and  _72
REMARK   32  A    between atoms: _78  and  _80
REMARK   33  A    between atoms: _80  and  _81
REMARK   34  A    between atoms: _83  and  _85
REMARK   35  A    between atoms: _85  and  _86
REMARK   36  A    between atoms: _85  and  _88
REMARK   37  A    between atoms: _88  and  _89
REMARK   38  A    between atoms: _91  and  _93
REMARK   39  A    between atoms: _93  and  _94
REMARK   40  A    between atoms: _93  and  _96
REMARK   41  A    between atoms: _96  and  _97
REMARK   42  A    between atoms: _97  and  _98
REMARK   43  A    between atoms: _100  and  _102
REMARK   44  A    between atoms: _102  and  _103
REMARK   45  A    between atoms: _102  and  _105
REMARK   46  A    between atoms: _105  and  _106
REMARK   47  A    between atoms: _116  and  _118
REMARK   48  A    between atoms: _118  and  _119
REMARK   49  A    between atoms: _118  and  _121
REMARK   50  A    between atoms: _121  and  _122
REMARK   51  A    between atoms: _128  and  _129
REMARK   52  A    between atoms: _134  and  _136
REMARK   53  A    between atoms: _136  and  _137
REMARK   54  A    between atoms: _136  and  _139
REMARK   55  A    between atoms: _139  and  _140
REMARK   56  A    between atoms: _150  and  _152
REMARK   57  A    between atoms: _152  and  _153
REMARK   58  A    between atoms: _152  and  _155
REMARK   59  A    between atoms: _155  and  _156
REMARK   60  A    between atoms: _159  and  _161
REMARK   61  A    between atoms: _161  and  _162
REMARK   62  A    between atoms: _161  and  _164
REMARK   63  A    between atoms: _164  and  _165
REMARK   64  A    between atoms: _170  and  _171
REMARK   65  A    between atoms: _173  and  _175
REMARK   66  A    between atoms: _175  and  _176
REMARK   67  A    between atoms: _178  and  _180
REMARK   68  A    between atoms: _180  and  _181
REMARK   69  A    between atoms: _183  and  _185
REMARK   70  A    between atoms: _185  and  _186
REMARK   71  A    between atoms: _188  and  _190
REMARK   72  A    between atoms: _190  and  _191
REMARK   73  A    between atoms: _190  and  _193
REMARK   74  A    between atoms: _193  and  _194
REMARK   75  A    between atoms: _200  and  _202
REMARK   76  A    between atoms: _202  and  _203
REMARK   77  A    between atoms: _202  and  _205
REMARK   78  A    between atoms: _205  and  _206
REMARK   79  A    between atoms: _211  and  _212
REMARK   80  A    between atoms: _214  and  _216
REMARK   81  A    between atoms: _216  and  _217
REMARK   82  A    between atoms: _216  and  _219
REMARK   83  A    between atoms: _219  and  _220
REMARK   84  A    between atoms: _222  and  _224
REMARK   85  A    between atoms: _224  and  _225
REMARK   86  A    between atoms: _227  and  _229
REMARK   87  A    between atoms: _229  and  _230
REMARK   88  A    between atoms: _229  and  _232
REMARK   89  A    between atoms: _232  and  _233
REMARK   90  A    between atoms: _235  and  _237
REMARK   91  A    between atoms: _237  and  _238
REMARK   92  A    between atoms: _237  and  _240
REMARK   93  A    between atoms: _240  and  _241
REMARK   94  A    between atoms: _243  and  _245
REMARK   95  A    between atoms: _245  and  _246
REMARK   96  A    between atoms: _245  and  _248
REMARK   97  A    between atoms: _248  and  _249
REMARK   98  A    between atoms: _252  and  _254
REMARK   99  A    between atoms: _254  and  _255
REMARK  100  A    between atoms: _254  and  _257
REMARK  101  A    between atoms: _257  and  _258
REMARK  102  A    between atoms: _261  and  _263
REMARK  103  A    between atoms: _263  and  _264
REMARK  104  A    between atoms: _263  and  _266
REMARK  105  A    between atoms: _269  and  _271
REMARK  106  A    between atoms: _271  and  _272
REMARK  107  A    between atoms: _271  and  _274
REMARK  108  A    between atoms: _274  and  _275
REMARK  109  A    between atoms: _280  and  _281
REMARK  110  A    between atoms: _283  and  _285
REMARK  111  A    between atoms: _285  and  _286
REMARK  112  A    between atoms: _285  and  _288
REMARK  113  A    between atoms: _288  and  _289
REMARK  114  A    between atoms: _294  and  _295
REMARK  115  A    between atoms: _297  and  _299
REMARK  116  A    between atoms: _299  and  _300
REMARK  117  A    between atoms: _299  and  _302
REMARK  118  A    between atoms: _305  and  _307
REMARK  119  A    between atoms: _307  and  _308
REMARK  120  A    between atoms: _307  and  _310
REMARK  121  A    between atoms: _310  and  _311
REMARK  122  A    between atoms: _311  and  _312
REMARK  123  A    between atoms: _315  and  _317
REMARK  124  A    between atoms: _317  and  _318
REMARK  125  A    between atoms: _317  and  _320
REMARK  126  A    between atoms: _320  and  _321
REMARK  127  A    between atoms: _323  and  _325
REMARK  128  A    between atoms: _325  and  _326
REMARK  129  A    between atoms: _329  and  _331
REMARK  130  A    between atoms: _331  and  _332
REMARK  131  A    between atoms: _334  and  _336
REMARK  132  A    between atoms: _336  and  _337
REMARK  133  A    between atoms: _336  and  _339
REMARK  134  A    between atoms: _339  and  _340
REMARK  135  A    between atoms: _342  and  _344
REMARK  136  A    between atoms: _344  and  _345
REMARK  137  A    between atoms: _344  and  _347
REMARK  138  A    between atoms: _347  and  _348
REMARK  139  A    between atoms: _358  and  _360
REMARK  140  A    between atoms: _360  and  _361
REMARK  141  A    between atoms: _360  and  _363
REMARK  142  A    between atoms: _363  and  _364
REMARK  143  A    between atoms: _364  and  _365
REMARK  144  A    between atoms: _368  and  _370
REMARK  145  A    between atoms: _370  and  _371
REMARK  146  A    between atoms: _370  and  _373
REMARK  147  A    between atoms: _373  and  _374
REMARK  148  A    between atoms: _384  and  _386
REMARK  149  A    between atoms: _386  and  _387
REMARK  150  A    between atoms: _386  and  _389
REMARK  151  A    between atoms: _389  and  _390
REMARK  152  A    between atoms: _395  and  _397
REMARK  153  A    between atoms: _397  and  _398
REMARK  154  A    between atoms: _397  and  _400
REMARK  155  A    between atoms: _400  and  _401
REMARK  156  A    between atoms: _404  and  _406
REMARK  157  A    between atoms: _406  and  _407
REMARK  158  A    between atoms: _406  and  _409
REMARK  159  A    between atoms: _409  and  _410
REMARK  160  A    between atoms: _416  and  _418
REMARK  161  A    between atoms: _418  and  _419
REMARK  162  A    between atoms: _418  and  _421
REMARK  163  A    between atoms: _421  and  _422
REMARK  164  A    between atoms: _425  and  _427
REMARK  165  A    between atoms: _427  and  _428
REMARK  166  A    between atoms: _427  and  _430
REMARK  167  A    between atoms: _430  and  _431
REMARK  168  A    between atoms: _433  and  _435
REMARK  169  A    between atoms: _435  and  _436
REMARK  170  A    between atoms: _435  and  _438
REMARK  171  A    between atoms: _438  and  _439
REMARK  172  A    between atoms: _442  and  _444
REMARK  173  A    between atoms: _444  and  _445
REMARK  174  A    between atoms: _444  and  _447
REMARK  175  A    between atoms: _447  and  _448
REMARK  176  A    between atoms: _454  and  _456
REMARK  177  A    between atoms: _456  and  _457
REMARK  178  A    between atoms: _456  and  _459
REMARK  179  A    between atoms: _459  and  _460
REMARK  180  A    between atoms: _460  and  _461
REMARK  181  A    between atoms: _461  and  _462
REMARK  182  A    between atoms: _471  and  _473
REMARK  183  A    between atoms: _473  and  _474
REMARK  184  A    between atoms: _473  and  _476
REMARK  185  A    between atoms: _476  and  _477
REMARK  186  A    between atoms: _483  and  _485
REMARK  187  A    between atoms: _485  and  _486
REMARK  188  A    between atoms: _485  and  _488
REMARK  189  A    between atoms: _488  and  _489
REMARK  190  A    between atoms: _491  and  _493
REMARK  191  A    between atoms: _493  and  _494
REMARK  192  A    between atoms: _493  and  _496
REMARK  193  A    between atoms: _496  and  _497
REMARK  194  A    between atoms: _502  and  _504
REMARK  195  A    between atoms: _504  and  _505
REMARK  196  A    between atoms: _504  and  _507
REMARK  197  A    between atoms: _507  and  _508
REMARK  198  A    between atoms: _508  and  _509
REMARK  199  A    between atoms: _512  and  _514
REMARK  200  A    between atoms: _514  and  _515
REMARK  201  A    between atoms: _517  and  _519
REMARK  202  A    between atoms: _519  and  _520
REMARK  203  A    between atoms: _519  and  _522
REMARK  204  A    between atoms: _522  and  _523
REMARK  205  A    between atoms: _525  and  _527
REMARK  206  A    between atoms: _527  and  _528
REMARK  207  A    between atoms: _527  and  _530
REMARK  208  A    between atoms: _530  and  _531
REMARK  209  A    between atoms: _537  and  _539
REMARK  210  A    between atoms: _539  and  _540
REMARK  211  A    between atoms: _539  and  _542
REMARK  212  A    between atoms: _542  and  _543
REMARK  213  A    between atoms: _549  and  _551
REMARK  214  A    between atoms: _551  and  _552
REMARK  215  A    between atoms: _551  and  _554
REMARK  216  A    between atoms: _554  and  _555
REMARK  217  A    between atoms: _558  and  _560
REMARK  218  A    between atoms: _560  and  _561
REMARK  219  A    between atoms: _560  and  _563
REMARK  220  A    between atoms: _563  and  _564
REMARK  221  A    between atoms: _567  and  _569
REMARK  222  A    between atoms: _569  and  _570
REMARK  223  A    between atoms: _569  and  _572
REMARK  224  A    between atoms: _572  and  _573
REMARK  225  A    between atoms: _578  and  _579
REMARK  226  A    between atoms: _581  and  _583
REMARK  227  A    between atoms: _583  and  _584
REMARK  228  A    between atoms: _586  and  _588
REMARK  229  A    between atoms: _588  and  _589
REMARK  230  A    between atoms: _592  and  _594
REMARK  231  A    between atoms: _594  and  _595
REMARK  232  A    between atoms: _594  and  _597
REMARK  233  A    between atoms: _597  and  _598
REMARK  234  A    between atoms: _601  and  _603
REMARK  235  A    between atoms: _603  and  _604
REMARK  236  A    between atoms: _603  and  _606
REMARK  237  A    between atoms: _606  and  _607
REMARK  238  A    between atoms: _609  and  _611
REMARK  239  A    between atoms: _611  and  _612
REMARK  240  A    between atoms: _611  and  _614
REMARK  241  A    between atoms: _617  and  _619
REMARK  242  A    between atoms: _619  and  _620
REMARK  243  A    between atoms: _619  and  _622
REMARK  244  A    between atoms: _622  and  _623
REMARK  245  A    between atoms: _628  and  _630
REMARK  246  A    between atoms: _630  and  _631
REMARK  247  A    between atoms: _630  and  _633
REMARK  248  A    between atoms: _633  and  _634
REMARK  249  A    between atoms: _644  and  _646
REMARK  250  A    between atoms: _646  and  _647
REMARK  251  A    between atoms: _646  and  _649
REMARK  252  A    between atoms: _649  and  _650
REMARK  253  A    between atoms: _650  and  _651
REMARK  254  A    between atoms: _653  and  _655
REMARK  255  A    between atoms: _655  and  _656
REMARK  256  A    between atoms: _655  and  _658
REMARK  257  A    between atoms: _658  and  _659
REMARK  258  A    between atoms: _662  and  _664
REMARK  259  A    between atoms: _664  and  _665
REMARK  260  A    between atoms: _664  and  _667
REMARK  261  A    between atoms: _667  and  _668
REMARK  262  A    between atoms: _673  and  _675
REMARK  263  A    between atoms: _675  and  _676
REMARK  264  A    between atoms: _678  and  _680
REMARK  265  A    between atoms: _680  and  _681
REMARK  266  A    between atoms: _680  and  _683
REMARK  267  A    between atoms: _683  and  _684
REMARK  268  A    between atoms: _689  and  _690
REMARK  269  A    between atoms: _692  and  _694
REMARK  270  A    between atoms: _694  and  _695
REMARK  271  A    between atoms: _694  and  _697
REMARK  272  A    between atoms: _697  and  _698
REMARK  273  A    between atoms: _698  and  _699
REMARK  274  A    between atoms: _702  and  _704
REMARK  275  A    between atoms: _704  and  _705
REMARK  276  A    between atoms: _704  and  _707
REMARK  277  A    between atoms: _707  and  _708
REMARK                            x       y       z     vdW  Elec       q    Type
REMARK                         _______ _______ _______ _____ _____    ______ ____
ROOT
ATOM      1  O   HOH     1      -3.611  67.765  66.847  0.00  0.00    +0.000 OA
ENDROOT
TORSDOF 0
REMARK  Name = ../refined-set-2016/1h22/1h22_pocket.pdb
REMARK  277 active torsions:
REMARK  status: ('A' for Active; 'I' for Inactive)
REMARK    1  A    between atoms: _1  and  _3
REMARK    2  A    between atoms: _3  and  _4
REMARK    3  A    between atoms: _3  and  _6
REMARK    4  A    between atoms: _6  and  _7
REMARK    5  A    between atoms: _7  and  _8
REMARK    6  A    between atoms: _13  and  _15
REMARK    7  A    between atoms: _15  and  _16
REMARK    8  A    between atoms: _15  and  _18
REMARK    9  A    between atoms: _18  and  _19
REMARK   10  A    between atoms: _24  and  _25
REMARK   11  A    between atoms: _27  and  _29
REMARK   12  A    between atoms: _29  and  _30
REMARK   13  A    between atoms: _29  and  _32
REMARK   14  A    between atoms: _35  and  _37
REMARK   15  A    between atoms: _37  and  _38
REMARK   16  A    between atoms: _37  and  _40
REMARK   17  A    between atoms: _40  and  _41
REMARK   18  A    between atoms: _44  and  _46
REMARK   19  A    between atoms: _46  and  _47
REMARK   20  A    between atoms: _46  and  _49
REMARK   21  A    between atoms: _49  and  _50
REMARK   22  A    between atoms: _50  and  _51
REMARK   23  A    between atoms: _54  and  _56
REMARK   24  A    between atoms: _56  and  _57
REMARK   25  A    between atoms: _56  and  _59
REMARK   26  A    between atoms: _59  and  _60
REMARK   27  A    between atoms: _60  and  _61
REMARK   28  A    between atoms: _66  and  _68
REMARK   29  A    between atoms: _68  and  _69
REMARK   30  A    between atoms: _68  and  _71
REMARK   31  A    between atoms: _71  and  _72
REMARK   32  A    between atoms: _78  and  _80
REMARK   33  A    between atoms: _80  and  _81
REMARK   34  A    between atoms: _83  and  _85
REMARK   35  A    between atoms: _85  and  _86
REMARK   36  A    between atoms: _85  and  _88
REMARK   37  A    between atoms: _88  and  _89
REMARK   38  A    between atoms: _91  and  _93
REMARK   39  A    between atoms: _93  and  _94
REMARK   40  A    between atoms: _93  and  _96
REMARK   41  A    between atoms: _96  and  _97
REMARK   42  A    between atoms: _97  and  _98
REMARK   43  A    between atoms: _100  and  _102
REMARK   44  A    between atoms: _102  and  _103
REMARK   45  A    between atoms: _102  and  _105
REMARK   46  A    between atoms: _105  and  _106
REMARK   47  A    between atoms: _116  and  _118
REMARK   48  A    between atoms: _118  and  _119
REMARK   49  A    between atoms: _118  and  _121
REMARK   50  A    between atoms: _121  and  _122
REMARK   51  A    between atoms: _128  and  _129
REMARK   52  A    between atoms: _134  and  _136
REMARK   53  A    between atoms: _136  and  _137
REMARK   54  A    between atoms: _136  and  _139
REMARK   55  A    between atoms: _139  and  _140
REMARK   56  A    between atoms: _150  and  _152
REMARK   57  A    between atoms: _152  and  _153
REMARK   58  A    between atoms: _152  and  _155
REMARK   59  A    between atoms: _155  and  _156
REMARK   60  A    between atoms: _159  and  _161
REMARK   61  A    between atoms: _161  and  _162
REMARK   62  A    between atoms: _161  and  _164
REMARK   63  A    between atoms: _164  and  _165
REMARK   64  A    between atoms: _170  and  _171
REMARK   65  A    between atoms: _173  and  _175
REMARK   66  A    between atoms: _175  and  _176
REMARK   67  A    between atoms: _178  and  _180
REMARK   68  A    between atoms: _180  and  _181
REMARK   69  A    between atoms: _183  and  _185
REMARK   70  A    between atoms: _185  and  _186
REMARK   71  A    between atoms: _188  and  _190
REMARK   72  A    between atoms: _190  and  _191
REMARK   73  A    between atoms: _190  and  _193
REMARK   74  A    between atoms: _193  and  _194
REMARK   75  A    between atoms: _200  and  _202
REMARK   76  A    between atoms: _202  and  _203
REMARK   77  A    between atoms: _202  and  _205
REMARK   78  A    between atoms: _205  and  _206
REMARK   79  A    between atoms: _211  and  _212
REMARK   80  A    between atoms: _214  and  _216
REMARK   81  A    between atoms: _216  and  _217
REMARK   82  A    between atoms: _216  and  _219
REMARK   83  A    between atoms: _219  and  _220
REMARK   84  A    between atoms: _222  and  _224
REMARK   85  A    between atoms: _224  and  _225
REMARK   86  A    between atoms: _227  and  _229
REMARK   87  A    between atoms: _229  and  _230
REMARK   88  A    between atoms: _229  and  _232
REMARK   89  A    between atoms: _232  and  _233
REMARK   90  A    between atoms: _235  and  _237
REMARK   91  A    between atoms: _237  and  _238
REMARK   92  A    between atoms: _237  and  _240
REMARK   93  A    between atoms: _240  and  _241
REMARK   94  A    between atoms: _243  and  _245
REMARK   95  A    between atoms: _245  and  _246
REMARK   96  A    between atoms: _245  and  _248
REMARK   97  A    between atoms: _248  and  _249
REMARK   98  A    between atoms: _252  and  _254
REMARK   99  A    between atoms: _254  and  _255
REMARK  100  A    between atoms: _254  and  _257
REMARK  101  A    between atoms: _257  and  _258
REMARK  102  A    between atoms: _261  and  _263
REMARK  103  A    between atoms: _263  and  _264
REMARK  104  A    between atoms: _263  and  _266
REMARK  105  A    between atoms: _269  and  _271
REMARK  106  A    between atoms: _271  and  _272
REMARK  107  A    between atoms: _271  and  _274
REMARK  108  A    between atoms: _274  and  _275
REMARK  109  A    between atoms: _280  and  _281
REMARK  110  A    between atoms: _283  and  _285
REMARK  111  A    between atoms: _285  and  _286
REMARK  112  A    between atoms: _285  and  _288
REMARK  113  A    between atoms: _288  and  _289
REMARK  114  A    between atoms: _294  and  _295
REMARK  115  A    between atoms: _297  and  _299
REMARK  116  A    between atoms: _299  and  _300
REMARK  117  A    between atoms: _299  and  _302
REMARK  118  A    between atoms: _305  and  _307
REMARK  119  A    between atoms: _307  and  _308
REMARK  120  A    between atoms: _307  and  _310
REMARK  121  A    between atoms: _310  and  _311
REMARK  122  A    between atoms: _311  and  _312
REMARK  123  A    between atoms: _315  and  _317
REMARK  124  A    between atoms: _317  and  _318
REMARK  125  A    between atoms: _317  and  _320
REMARK  126  A    between atoms: _320  and  _321
REMARK  127  A    between atoms: _323  and  _325
REMARK  128  A    between atoms: _325  and  _326
REMARK  129  A    between atoms: _329  and  _331
REMARK  130  A    between atoms: _331  and  _332
REMARK  131  A    between atoms: _334  and  _336
REMARK  132  A    between atoms: _336  and  _337
REMARK  133  A    between atoms: _336  and  _339
REMARK  134  A    between atoms: _339  and  _340
REMARK  135  A    between atoms: _342  and  _344
REMARK  136  A    between atoms: _344  and  _345
REMARK  137  A    between atoms: _344  and  _347
REMARK  138  A    between atoms: _347  and  _348
REMARK  139  A    between atoms: _358  and  _360
REMARK  140  A    between atoms: _360  and  _361
REMARK  141  A    between atoms: _360  and  _363
REMARK  142  A    between atoms: _363  and  _364
REMARK  143  A    between atoms: _364  and  _365
REMARK  144  A    between atoms: _368  and  _370
REMARK  145  A    between atoms: _370  and  _371
REMARK  146  A    between atoms: _370  and  _373
REMARK  147  A    between atoms: _373  and  _374
REMARK  148  A    between atoms: _384  and  _386
REMARK  149  A    between atoms: _386  and  _387
REMARK  150  A    between atoms: _386  and  _389
REMARK  151  A    between atoms: _389  and  _390
REMARK  152  A    between atoms: _395  and  _397
REMARK  153  A    between atoms: _397  and  _398
REMARK  154  A    between atoms: _397  and  _400
REMARK  155  A    between atoms: _400  and  _401
REMARK  156  A    between atoms: _404  and  _406
REMARK  157  A    between atoms: _406  and  _407
REMARK  158  A    between atoms: _406  and  _409
REMARK  159  A    between atoms: _409  and  _410
REMARK  160  A    between atoms: _416  and  _418
REMARK  161  A    between atoms: _418  and  _419
REMARK  162  A    between atoms: _418  and  _421
REMARK  163  A    between atoms: _421  and  _422
REMARK  164  A    between atoms: _425  and  _427
REMARK  165  A    between atoms: _427  and  _428
REMARK  166  A    between atoms: _427  and  _430
REMARK  167  A    between atoms: _430  and  _431
REMARK  168  A    between atoms: _433  and  _435
REMARK  169  A    between atoms: _435  and  _436
REMARK  170  A    between atoms: _435  and  _438
REMARK  171  A    between atoms: _438  and  _439
REMARK  172  A    between atoms: _442  and  _444
REMARK  173  A    between atoms: _444  and  _445
REMARK  174  A    between atoms: _444  and  _447
REMARK  175  A    between atoms: _447  and  _448
REMARK  176  A    between atoms: _454  and  _456
REMARK  177  A    between atoms: _456  and  _457
REMARK  178  A    between atoms: _456  and  _459
REMARK  179  A    between atoms: _459  and  _460
REMARK  180  A    between atoms: _460  and  _461
REMARK  181  A    between atoms: _461  and  _462
REMARK  182  A    between atoms: _471  and  _473
REMARK  183  A    between atoms: _473  and  _474
REMARK  184  A    between atoms: _473  and  _476
REMARK  185  A    between atoms: _476  and  _477
REMARK  186  A    between atoms: _483  and  _485
REMARK  187  A    between atoms: _485  and  _486
REMARK  188  A    between atoms: _485  and  _488
REMARK  189  A    between atoms: _488  and  _489
REMARK  190  A    between atoms: _491  and  _493
REMARK  191  A    between atoms: _493  and  _494
REMARK  192  A    between atoms: _493  and  _496
REMARK  193  A    between atoms: _496  and  _497
REMARK  194  A    between atoms: _502  and  _504
REMARK  195  A    between atoms: _504  and  _505
REMARK  196  A    between atoms: _504  and  _507
REMARK  197  A    between atoms: _507  and  _508
REMARK  198  A    between atoms: _508  and  _509
REMARK  199  A    between atoms: _512  and  _514
REMARK  200  A    between atoms: _514  and  _515
REMARK  201  A    between atoms: _517  and  _519
REMARK  202  A    between atoms: _519  and  _520
REMARK  203  A    between atoms: _519  and  _522
REMARK  204  A    between atoms: _522  and  _523
REMARK  205  A    between atoms: _525  and  _527
REMARK  206  A    between atoms: _527  and  _528
REMARK  207  A    between atoms: _527  and  _530
REMARK  208  A    between atoms: _530  and  _531
REMARK  209  A    between atoms: _537  and  _539
REMARK  210  A    between atoms: _539  and  _540
REMARK  211  A    between atoms: _539  and  _542
REMARK  212  A    between atoms: _542  and  _543
REMARK  213  A    between atoms: _549  and  _551
REMARK  214  A    between atoms: _551  and  _552
REMARK  215  A    between atoms: _551  and  _554
REMARK  216  A    between atoms: _554  and  _555
REMARK  217  A    between atoms: _558  and  _560
REMARK  218  A    between atoms: _560  and  _561
REMARK  219  A    between atoms: _560  and  _563
REMARK  220  A    between atoms: _563  and  _564
REMARK  221  A    between atoms: _567  and  _569
REMARK  222  A    between atoms: _569  and  _570
REMARK  223  A    between atoms: _569  and  _572
REMARK  224  A    between atoms: _572  and  _573
REMARK  225  A    between atoms: _578  and  _579
REMARK  226  A    between atoms: _581  and  _583
REMARK  227  A    between atoms: _583  and  _584
REMARK  228  A    between atoms: _586  and  _588
REMARK  229  A    between atoms: _588  and  _589
REMARK  230  A    between atoms: _592  and  _594
REMARK  231  A    between atoms: _594  and  _595
REMARK  232  A    between atoms: _594  and  _597
REMARK  233  A    between atoms: _597  and  _598
REMARK  234  A    between atoms: _601  and  _603
REMARK  235  A    between atoms: _603  and  _604
REMARK  236  A    between atoms: _603  and  _606
REMARK  237  A    between atoms: _606  and  _607
REMARK  238  A    between atoms: _609  and  _611
REMARK  239  A    between atoms: _611  and  _612
REMARK  240  A    between atoms: _611  and  _614
REMARK  241  A    between atoms: _617  and  _619
REMARK  242  A    between atoms: _619  and  _620
REMARK  243  A    between atoms: _619  and  _622
REMARK  244  A    between atoms: _622  and  _623
REMARK  245  A    between atoms: _628  and  _630
REMARK  246  A    between atoms: _630  and  _631
REMARK  247  A    between atoms: _630  and  _633
REMARK  248  A    between atoms: _633  and  _634
REMARK  249  A    between atoms: _644  and  _646
REMARK  250  A    between atoms: _646  and  _647
REMARK  251  A    between atoms: _646  and  _649
REMARK  252  A    between atoms: _649  and  _650
REMARK  253  A    between atoms: _650  and  _651
REMARK  254  A    between atoms: _653  and  _655
REMARK  255  A    between atoms: _655  and  _656
REMARK  256  A    between atoms: _655  and  _658
REMARK  257  A    between atoms: _658  and  _659
REMARK  258  A    between atoms: _662  and  _664
REMARK  259  A    between atoms: _664  and  _665
REMARK  260  A    between atoms: _664  and  _667
REMARK  261  A    between atoms: _667  and  _668
REMARK  262  A    between atoms: _673  and  _675
REMARK  263  A    between atoms: _675  and  _676
REMARK  264  A    between atoms: _678  and  _680
REMARK  265  A    between atoms: _680  and  _681
REMARK  266  A    between atoms: _680  and  _683
REMARK  267  A    between atoms: _683  and  _684
REMARK  268  A    between atoms: _689  and  _690
REMARK  269  A    between atoms: _692  and  _694
REMARK  270  A    between atoms: _694  and  _695
REMARK  271  A    between atoms: _694  and  _697
REMARK  272  A    between atoms: _697  and  _698
REMARK  273  A    between atoms: _698  and  _699
REMARK  274  A    between atoms: _702  and  _704
REMARK  275  A    between atoms: _704  and  _705
REMARK  276  A    between atoms: _704  and  _707
REMARK  277  A    between atoms: _707  and  _708
REMARK                            x       y       z     vdW  Elec       q    Type
REMARK                         _______ _______ _______ _____ _____    ______ ____
ROOT
ATOM      1  O   HOH     1      -3.772  62.251  75.012  0.00  0.00    +0.000 OA
ENDROOT
TORSDOF 0
REMARK  Name = ../refined-set-2016/1h22/1h22_pocket.pdb
REMARK  277 active torsions:
REMARK  status: ('A' for Active; 'I' for Inactive)
REMARK    1  A    between atoms: _1  and  _3
REMARK    2  A    between atoms: _3  and  _4
REMARK    3  A    between atoms: _3  and  _6
REMARK    4  A    between atoms: _6  and  _7
REMARK    5  A    between atoms: _7  and  _8
REMARK    6  A    between atoms: _13  and  _15
REMARK    7  A    between atoms: _15  and  _16
REMARK    8  A    between atoms: _15  and  _18
REMARK    9  A    between atoms: _18  and  _19
REMARK   10  A    between atoms: _24  and  _25
REMARK   11  A    between atoms: _27  and  _29
REMARK   12  A    between atoms: _29  and  _30
REMARK   13  A    between atoms: _29  and  _32
REMARK   14  A    between atoms: _35  and  _37
REMARK   15  A    between atoms: _37  and  _38
REMARK   16  A    between atoms: _37  and  _40
REMARK   17  A    between atoms: _40  and  _41
REMARK   18  A    between atoms: _44  and  _46
REMARK   19  A    between atoms: _46  and  _47
REMARK   20  A    between atoms: _46  and  _49
REMARK   21  A    between atoms: _49  and  _50
REMARK   22  A    between atoms: _50  and  _51
REMARK   23  A    between atoms: _54  and  _56
REMARK   24  A    between atoms: _56  and  _57
REMARK   25  A    between atoms: _56  and  _59
REMARK   26  A    between atoms: _59  and  _60
REMARK   27  A    between atoms: _60  and  _61
REMARK   28  A    between atoms: _66  and  _68
REMARK   29  A    between atoms: _68  and  _69
REMARK   30  A    between atoms: _68  and  _71
REMARK   31  A    between atoms: _71  and  _72
REMARK   32  A    between atoms: _78  and  _80
REMARK   33  A    between atoms: _80  and  _81
REMARK   34  A    between atoms: _83  and  _85
REMARK   35  A    between atoms: _85  and  _86
REMARK   36  A    between atoms: _85  and  _88
REMARK   37  A    between atoms: _88  and  _89
REMARK   38  A    between atoms: _91  and  _93
REMARK   39  A    between atoms: _93  and  _94
REMARK   40  A    between atoms: _93  and  _96
REMARK   41  A    between atoms: _96  and  _97
REMARK   42  A    between atoms: _97  and  _98
REMARK   43  A    between atoms: _100  and  _102
REMARK   44  A    between atoms: _102  and  _103
REMARK   45  A    between atoms: _102  and  _105
REMARK   46  A    between atoms: _105  and  _106
REMARK   47  A    between atoms: _116  and  _118
REMARK   48  A    between atoms: _118  and  _119
REMARK   49  A    between atoms: _118  and  _121
REMARK   50  A    between atoms: _121  and  _122
REMARK   51  A    between atoms: _128  and  _129
REMARK   52  A    between atoms: _134  and  _136
REMARK   53  A    between atoms: _136  and  _137
REMARK   54  A    between atoms: _136  and  _139
REMARK   55  A    between atoms: _139  and  _140
REMARK   56  A    between atoms: _150  and  _152
REMARK   57  A    between atoms: _152  and  _153
REMARK   58  A    between atoms: _152  and  _155
REMARK   59  A    between atoms: _155  and  _156
REMARK   60  A    between atoms: _159  and  _161
REMARK   61  A    between atoms: _161  and  _162
REMARK   62  A    between atoms: _161  and  _164
REMARK   63  A    between atoms: _164  and  _165
REMARK   64  A    between atoms: _170  and  _171
REMARK   65  A    between atoms: _173  and  _175
REMARK   66  A    between atoms: _175  and  _176
REMARK   67  A    between atoms: _178  and  _180
REMARK   68  A    between atoms: _180  and  _181
REMARK   69  A    between atoms: _183  and  _185
REMARK   70  A    between atoms: _185  and  _186
REMARK   71  A    between atoms: _188  and  _190
REMARK   72  A    between atoms: _190  and  _191
REMARK   73  A    between atoms: _190  and  _193
REMARK   74  A    between atoms: _193  and  _194
REMARK   75  A    between atoms: _200  and  _202
REMARK   76  A    between atoms: _202  and  _203
REMARK   77  A    between atoms: _202  and  _205
REMARK   78  A    between atoms: _205  and  _206
REMARK   79  A    between atoms: _211  and  _212
REMARK   80  A    between atoms: _214  and  _216
REMARK   81  A    between atoms: _216  and  _217
REMARK   82  A    between atoms: _216  and  _219
REMARK   83  A    between atoms: _219  and  _220
REMARK   84  A    between atoms: _222  and  _224
REMARK   85  A    between atoms: _224  and  _225
REMARK   86  A    between atoms: _227  and  _229
REMARK   87  A    between atoms: _229  and  _230
REMARK   88  A    between atoms: _229  and  _232
REMARK   89  A    between atoms: _232  and  _233
REMARK   90  A    between atoms: _235  and  _237
REMARK   91  A    between atoms: _237  and  _238
REMARK   92  A    between atoms: _237  and  _240
REMARK   93  A    between atoms: _240  and  _241
REMARK   94  A    between atoms: _243  and  _245
REMARK   95  A    between atoms: _245  and  _246
REMARK   96  A    between atoms: _245  and  _248
REMARK   97  A    between atoms: _248  and  _249
REMARK   98  A    between atoms: _252  and  _254
REMARK   99  A    between atoms: _254  and  _255
REMARK  100  A    between atoms: _254  and  _257
REMARK  101  A    between atoms: _257  and  _258
REMARK  102  A    between atoms: _261  and  _263
REMARK  103  A    between atoms: _263  and  _264
REMARK  104  A    between atoms: _263  and  _266
REMARK  105  A    between atoms: _269  and  _271
REMARK  106  A    between atoms: _271  and  _272
REMARK  107  A    between atoms: _271  and  _274
REMARK  108  A    between atoms: _274  and  _275
REMARK  109  A    between atoms: _280  and  _281
REMARK  110  A    between atoms: _283  and  _285
REMARK  111  A    between atoms: _285  and  _286
REMARK  112  A    between atoms: _285  and  _288
REMARK  113  A    between atoms: _288  and  _289
REMARK  114  A    between atoms: _294  and  _295
REMARK  115  A    between atoms: _297  and  _299
REMARK  116  A    between atoms: _299  and  _300
REMARK  117  A    between atoms: _299  and  _302
REMARK  118  A    between atoms: _305  and  _307
REMARK  119  A    between atoms: _307  and  _308
REMARK  120  A    between atoms: _307  and  _310
REMARK  121  A    between atoms: _310  and  _311
REMARK  122  A    between atoms: _311  and  _312
REMARK  123  A    between atoms: _315  and  _317
REMARK  124  A    between atoms: _317  and  _318
REMARK  125  A    between atoms: _317  and  _320
REMARK  126  A    between atoms: _320  and  _321
REMARK  127  A    between atoms: _323  and  _325
REMARK  128  A    between atoms: _325  and  _326
REMARK  129  A    between atoms: _329  and  _331
REMARK  130  A    between atoms: _331  and  _332
REMARK  131  A    between atoms: _334  and  _336
REMARK  132  A    between atoms: _336  and  _337
REMARK  133  A    between atoms: _336  and  _339
REMARK  134  A    between atoms: _339  and  _340
REMARK  135  A    between atoms: _342  and  _344
REMARK  136  A    between atoms: _344  and  _345
REMARK  137  A    between atoms: _344  and  _347
REMARK  138  A    between atoms: _347  and  _348
REMARK  139  A    between atoms: _358  and  _360
REMARK  140  A    between atoms: _360  and  _361
REMARK  141  A    between atoms: _360  and  _363
REMARK  142  A    between atoms: _363  and  _364
REMARK  143  A    between atoms: _364  and  _365
REMARK  144  A    between atoms: _368  and  _370
REMARK  145  A    between atoms: _370  and  _371
REMARK  146  A    between atoms: _370  and  _373
REMARK  147  A    between atoms: _373  and  _374
REMARK  148  A    between atoms: _384  and  _386
REMARK  149  A    between atoms: _386  and  _387
REMARK  150  A    between atoms: _386  and  _389
REMARK  151  A    between atoms: _389  and  _390
REMARK  152  A    between atoms: _395  and  _397
REMARK  153  A    between atoms: _397  and  _398
REMARK  154  A    between atoms: _397  and  _400
REMARK  155  A    between atoms: _400  and  _401
REMARK  156  A    between atoms: _404  and  _406
REMARK  157  A    between atoms: _406  and  _407
REMARK  158  A    between atoms: _406  and  _409
REMARK  159  A    between atoms: _409  and  _410
REMARK  160  A    between atoms: _416  and  _418
REMARK  161  A    between atoms: _418  and  _419
REMARK  162  A    between atoms: _418  and  _421
REMARK  163  A    between atoms: _421  and  _422
REMARK  164  A    between atoms: _425  and  _427
REMARK  165  A    between atoms: _427  and  _428
REMARK  166  A    between atoms: _427  and  _430
REMARK  167  A    between atoms: _430  and  _431
REMARK  168  A    between atoms: _433  and  _435
REMARK  169  A    between atoms: _435  and  _436
REMARK  170  A    between atoms: _435  and  _438
REMARK  171  A    between atoms: _438  and  _439
REMARK  172  A    between atoms: _442  and  _444
REMARK  173  A    between atoms: _444  and  _445
REMARK  174  A    between atoms: _444  and  _447
REMARK  175  A    between atoms: _447  and  _448
REMARK  176  A    between atoms: _454  and  _456
REMARK  177  A    between atoms: _456  and  _457
REMARK  178  A    between atoms: _456  and  _459
REMARK  179  A    between atoms: _459  and  _460
REMARK  180  A    between atoms: _460  and  _461
REMARK  181  A    between atoms: _461  and  _462
REMARK  182  A    between atoms: _471  and  _473
REMARK  183  A    between atoms: _473  and  _474
REMARK  184  A    between atoms: _473  and  _476
REMARK  185  A    between atoms: _476  and  _477
REMARK  186  A    between atoms: _483  and  _485
REMARK  187  A    between atoms: _485  and  _486
REMARK  188  A    between atoms: _485  and  _488
REMARK  189  A    between atoms: _488  and  _489
REMARK  190  A    between atoms: _491  and  _493
REMARK  191  A    between atoms: _493  and  _494
REMARK  192  A    between atoms: _493  and  _496
REMARK  193  A    between atoms: _496  and  _497
REMARK  194  A    between atoms: _502  and  _504
REMARK  195  A    between atoms: _504  and  _505
REMARK  196  A    between atoms: _504  and  _507
REMARK  197  A    between atoms: _507  and  _508
REMARK  198  A    between atoms: _508  and  _509
REMARK  199  A    between atoms: _512  and  _514
REMARK  200  A    between atoms: _514  and  _515
REMARK  201  A    between atoms: _517  and  _519
REMARK  202  A    between atoms: _519  and  _520
REMARK  203  A    between atoms: _519  and  _522
REMARK  204  A    between atoms: _522  and  _523
REMARK  205  A    between atoms: _525  and  _527
REMARK  206  A    between atoms: _527  and  _528
REMARK  207  A    between atoms: _527  and  _530
REMARK  208  A    between atoms: _530  and  _531
REMARK  209  A    between atoms: _537  and  _539
REMARK  210  A    between atoms: _539  and  _540
REMARK  211  A    between atoms: _539  and  _542
REMARK  212  A    between atoms: _542  and  _543
REMARK  213  A    between atoms: _549  and  _551
REMARK  214  A    between atoms: _551  and  _552
REMARK  215  A    between atoms: _551  and  _554
REMARK  216  A    between atoms: _554  and  _555
REMARK  217  A    between atoms: _558  and  _560
REMARK  218  A    between atoms: _560  and  _561
REMARK  219  A    between atoms: _560  and  _563
REMARK  220  A    between atoms: _563  and  _564
REMARK  221  A    between atoms: _567  and  _569
REMARK  222  A    between atoms: _569  and  _570
REMARK  223  A    between atoms: _569  and  _572
REMARK  224  A    between atoms: _572  and  _573
REMARK  225  A    between atoms: _578  and  _579
REMARK  226  A    between atoms: _581  and  _583
REMARK  227  A    between atoms: _583  and  _584
REMARK  228  A    between atoms: _586  and  _588
REMARK  229  A    between atoms: _588  and  _589
REMARK  230  A    between atoms: _592  and  _594
REMARK  231  A    between atoms: _594  and  _595
REMARK  232  A    between atoms: _594  and  _597
REMARK  233  A    between atoms: _597  and  _598
REMARK  234  A    between atoms: _601  and  _603
REMARK  235  A    between atoms: _603  and  _604
REMARK  236  A    between atoms: _603  and  _606
REMARK  237  A    between atoms: _606  and  _607
REMARK  238  A    between atoms: _609  and  _611
REMARK  239  A    between atoms: _611  and  _612
REMARK  240  A    between atoms: _611  and  _614
REMARK  241  A    between atoms: _617  and  _619
REMARK  242  A    between atoms: _619  and  _620
REMARK  243  A    between atoms: _619  and  _622
REMARK  244  A    between atoms: _622  and  _623
REMARK  245  A    between atoms: _628  and  _630
REMARK  246  A    between atoms: _630  and  _631
REMARK  247  A    between atoms: _630  and  _633
REMARK  248  A    between atoms: _633  and  _634
REMARK  249  A    between atoms: _644  and  _646
REMARK  250  A    between atoms: _646  and  _647
REMARK  251  A    between atoms: _646  and  _649
REMARK  252  A    between atoms: _649  and  _650
REMARK  253  A    between atoms: _650  and  _651
REMARK  254  A    between atoms: _653  and  _655
REMARK  255  A    between atoms: _655  and  _656
REMARK  256  A    between atoms: _655  and  _658
REMARK  257  A    between atoms: _658  and  _659
REMARK  258  A    between atoms: _662  and  _664
REMARK  259  A    between atoms: _664  and  _665
REMARK  260  A    between atoms: _664  and  _667
REMARK  261  A    between atoms: _667  and  _668
REMARK  262  A    between atoms: _673  and  _675
REMARK  263  A    between atoms: _675  and  _676
REMARK  264  A    between atoms: _678  and  _680
REMARK  265  A    between atoms: _680  and  _681
REMARK  266  A    between atoms: _680  and  _683
REMARK  267  A    between atoms: _683  and  _684
REMARK  268  A    between atoms: _689  and  _690
REMARK  269  A    between atoms: _692  and  _694
REMARK  270  A    between atoms: _694  and  _695
REMARK  271  A    between atoms: _694  and  _697
REMARK  272  A    between atoms: _697  and  _698
REMARK  273  A    between atoms: _698  and  _699
REMARK  274  A    between atoms: _702  and  _704
REMARK  275  A    between atoms: _704  and  _705
REMARK  276  A    between atoms: _704  and  _707
REMARK  277  A    between atoms: _707  and  _708
REMARK                            x       y       z     vdW  Elec       q    Type
REMARK                         _______ _______ _______ _____ _____    ______ ____
ROOT
ATOM      1  O   HOH     1      -3.444  66.756  74.551  0.00  0.00    +0.000 OA
ENDROOT
TORSDOF 0
REMARK  Name = ../refined-set-2016/1h22/1h22_pocket.pdb
REMARK  277 active torsions:
REMARK  status: ('A' for Active; 'I' for Inactive)
REMARK    1  A    between atoms: _1  and  _3
REMARK    2  A    between atoms: _3  and  _4
REMARK    3  A    between atoms: _3  and  _6
REMARK    4  A    between atoms: _6  and  _7
REMARK    5  A    between atoms: _7  and  _8
REMARK    6  A    between atoms: _13  and  _15
REMARK    7  A    between atoms: _15  and  _16
REMARK    8  A    between atoms: _15  and  _18
REMARK    9  A    between atoms: _18  and  _19
REMARK   10  A    between atoms: _24  and  _25
REMARK   11  A    between atoms: _27  and  _29
REMARK   12  A    between atoms: _29  and  _30
REMARK   13  A    between atoms: _29  and  _32
REMARK   14  A    between atoms: _35  and  _37
REMARK   15  A    between atoms: _37  and  _38
REMARK   16  A    between atoms: _37  and  _40
REMARK   17  A    between atoms: _40  and  _41
REMARK   18  A    between atoms: _44  and  _46
REMARK   19  A    between atoms: _46  and  _47
REMARK   20  A    between atoms: _46  and  _49
REMARK   21  A    between atoms: _49  and  _50
REMARK   22  A    between atoms: _50  and  _51
REMARK   23  A    between atoms: _54  and  _56
REMARK   24  A    between atoms: _56  and  _57
REMARK   25  A    between atoms: _56  and  _59
REMARK   26  A    between atoms: _59  and  _60
REMARK   27  A    between atoms: _60  and  _61
REMARK   28  A    between atoms: _66  and  _68
REMARK   29  A    between atoms: _68  and  _69
REMARK   30  A    between atoms: _68  and  _71
REMARK   31  A    between atoms: _71  and  _72
REMARK   32  A    between atoms: _78  and  _80
REMARK   33  A    between atoms: _80  and  _81
REMARK   34  A    between atoms: _83  and  _85
REMARK   35  A    between atoms: _85  and  _86
REMARK   36  A    between atoms: _85  and  _88
REMARK   37  A    between atoms: _88  and  _89
REMARK   38  A    between atoms: _91  and  _93
REMARK   39  A    between atoms: _93  and  _94
REMARK   40  A    between atoms: _93  and  _96
REMARK   41  A    between atoms: _96  and  _97
REMARK   42  A    between atoms: _97  and  _98
REMARK   43  A    between atoms: _100  and  _102
REMARK   44  A    between atoms: _102  and  _103
REMARK   45  A    between atoms: _102  and  _105
REMARK   46  A    between atoms: _105  and  _106
REMARK   47  A    between atoms: _116  and  _118
REMARK   48  A    between atoms: _118  and  _119
REMARK   49  A    between atoms: _118  and  _121
REMARK   50  A    between atoms: _121  and  _122
REMARK   51  A    between atoms: _128  and  _129
REMARK   52  A    between atoms: _134  and  _136
REMARK   53  A    between atoms: _136  and  _137
REMARK   54  A    between atoms: _136  and  _139
REMARK   55  A    between atoms: _139  and  _140
REMARK   56  A    between atoms: _150  and  _152
REMARK   57  A    between atoms: _152  and  _153
REMARK   58  A    between atoms: _152  and  _155
REMARK   59  A    between atoms: _155  and  _156
REMARK   60  A    between atoms: _159  and  _161
REMARK   61  A    between atoms: _161  and  _162
REMARK   62  A    between atoms: _161  and  _164
REMARK   63  A    between atoms: _164  and  _165
REMARK   64  A    between atoms: _170  and  _171
REMARK   65  A    between atoms: _173  and  _175
REMARK   66  A    between atoms: _175  and  _176
REMARK   67  A    between atoms: _178  and  _180
REMARK   68  A    between atoms: _180  and  _181
REMARK   69  A    between atoms: _183  and  _185
REMARK   70  A    between atoms: _185  and  _186
REMARK   71  A    between atoms: _188  and  _190
REMARK   72  A    between atoms: _190  and  _191
REMARK   73  A    between atoms: _190  and  _193
REMARK   74  A    between atoms: _193  and  _194
REMARK   75  A    between atoms: _200  and  _202
REMARK   76  A    between atoms: _202  and  _203
REMARK   77  A    between atoms: _202  and  _205
REMARK   78  A    between atoms: _205  and  _206
REMARK   79  A    between atoms: _211  and  _212
REMARK   80  A    between atoms: _214  and  _216
REMARK   81  A    between atoms: _216  and  _217
REMARK   82  A    between atoms: _216  and  _219
REMARK   83  A    between atoms: _219  and  _220
REMARK   84  A    between atoms: _222  and  _224
REMARK   85  A    between atoms: _224  and  _225
REMARK   86  A    between atoms: _227  and  _229
REMARK   87  A    between atoms: _229  and  _230
REMARK   88  A    between atoms: _229  and  _232
REMARK   89  A    between atoms: _232  and  _233
REMARK   90  A    between atoms: _235  and  _237
REMARK   91  A    between atoms: _237  and  _238
REMARK   92  A    between atoms: _237  and  _240
REMARK   93  A    between atoms: _240  and  _241
REMARK   94  A    between atoms: _243  and  _245
REMARK   95  A    between atoms: _245  and  _246
REMARK   96  A    between atoms: _245  and  _248
REMARK   97  A    between atoms: _248  and  _249
REMARK   98  A    between atoms: _252  and  _254
REMARK   99  A    between atoms: _254  and  _255
REMARK  100  A    between atoms: _254  and  _257
REMARK  101  A    between atoms: _257  and  _258
REMARK  102  A    between atoms: _261  and  _263
REMARK  103  A    between atoms: _263  and  _264
REMARK  104  A    between atoms: _263  and  _266
REMARK  105  A    between atoms: _269  and  _271
REMARK  106  A    between atoms: _271  and  _272
REMARK  107  A    between atoms: _271  and  _274
REMARK  108  A    between atoms: _274  and  _275
REMARK  109  A    between atoms: _280  and  _281
REMARK  110  A    between atoms: _283  and  _285
REMARK  111  A    between atoms: _285  and  _286
REMARK  112  A    between atoms: _285  and  _288
REMARK  113  A    between atoms: _288  and  _289
REMARK  114  A    between atoms: _294  and  _295
REMARK  115  A    between atoms: _297  and  _299
REMARK  116  A    between atoms: _299  and  _300
REMARK  117  A    between atoms: _299  and  _302
REMARK  118  A    between atoms: _305  and  _307
REMARK  119  A    between atoms: _307  and  _308
REMARK  120  A    between atoms: _307  and  _310
REMARK  121  A    between atoms: _310  and  _311
REMARK  122  A    between atoms: _311  and  _312
REMARK  123  A    between atoms: _315  and  _317
REMARK  124  A    between atoms: _317  and  _318
REMARK  125  A    between atoms: _317  and  _320
REMARK  126  A    between atoms: _320  and  _321
REMARK  127  A    between atoms: _323  and  _325
REMARK  128  A    between atoms: _325  and  _326
REMARK  129  A    between atoms: _329  and  _331
REMARK  130  A    between atoms: _331  and  _332
REMARK  131  A    between atoms: _334  and  _336
REMARK  132  A    between atoms: _336  and  _337
REMARK  133  A    between atoms: _336  and  _339
REMARK  134  A    between atoms: _339  and  _340
REMARK  135  A    between atoms: _342  and  _344
REMARK  136  A    between atoms: _344  and  _345
REMARK  137  A    between atoms: _344  and  _347
REMARK  138  A    between atoms: _347  and  _348
REMARK  139  A    between atoms: _358  and  _360
REMARK  140  A    between atoms: _360  and  _361
REMARK  141  A    between atoms: _360  and  _363
REMARK  142  A    between atoms: _363  and  _364
REMARK  143  A    between atoms: _364  and  _365
REMARK  144  A    between atoms: _368  and  _370
REMARK  145  A    between atoms: _370  and  _371
REMARK  146  A    between atoms: _370  and  _373
REMARK  147  A    between atoms: _373  and  _374
REMARK  148  A    between atoms: _384  and  _386
REMARK  149  A    between atoms: _386  and  _387
REMARK  150  A    between atoms: _386  and  _389
REMARK  151  A    between atoms: _389  and  _390
REMARK  152  A    between atoms: _395  and  _397
REMARK  153  A    between atoms: _397  and  _398
REMARK  154  A    between atoms: _397  and  _400
REMARK  155  A    between atoms: _400  and  _401
REMARK  156  A    between atoms: _404  and  _406
REMARK  157  A    between atoms: _406  and  _407
REMARK  158  A    between atoms: _406  and  _409
REMARK  159  A    between atoms: _409  and  _410
REMARK  160  A    between atoms: _416  and  _418
REMARK  161  A    between atoms: _418  and  _419
REMARK  162  A    between atoms: _418  and  _421
REMARK  163  A    between atoms: _421  and  _422
REMARK  164  A    between atoms: _425  and  _427
REMARK  165  A    between atoms: _427  and  _428
REMARK  166  A    between atoms: _427  and  _430
REMARK  167  A    between atoms: _430  and  _431
REMARK  168  A    between atoms: _433  and  _435
REMARK  169  A    between atoms: _435  and  _436
REMARK  170  A    between atoms: _435  and  _438
REMARK  171  A    between atoms: _438  and  _439
REMARK  172  A    between atoms: _442  and  _444
REMARK  173  A    between atoms: _444  and  _445
REMARK  174  A    between atoms: _444  and  _447
REMARK  175  A    between atoms: _447  and  _448
REMARK  176  A    between atoms: _454  and  _456
REMARK  177  A    between atoms: _456  and  _457
REMARK  178  A    between atoms: _456  and  _459
REMARK  179  A    between atoms: _459  and  _460
REMARK  180  A    between atoms: _460  and  _461
REMARK  181  A    between atoms: _461  and  _462
REMARK  182  A    between atoms: _471  and  _473
REMARK  183  A    between atoms: _473  and  _474
REMARK  184  A    between atoms: _473  and  _476
REMARK  185  A    between atoms: _476  and  _477
REMARK  186  A    between atoms: _483  and  _485
REMARK  187  A    between atoms: _485  and  _486
REMARK  188  A    between atoms: _485  and  _488
REMARK  189  A    between atoms: _488  and  _489
REMARK  190  A    between atoms: _491  and  _493
REMARK  191  A    between atoms: _493  and  _494
REMARK  192  A    between atoms: _493  and  _496
REMARK  193  A    between atoms: _496  and  _497
REMARK  194  A    between atoms: _502  and  _504
REMARK  195  A    between atoms: _504  and  _505
REMARK  196  A    between atoms: _504  and  _507
REMARK  197  A    between atoms: _507  and  _508
REMARK  198  A    between atoms: _508  and  _509
REMARK  199  A    between atoms: _512  and  _514
REMARK  200  A    between atoms: _514  and  _515
REMARK  201  A    between atoms: _517  and  _519
REMARK  202  A    between atoms: _519  and  _520
REMARK  203  A    between atoms: _519  and  _522
REMARK  204  A    between atoms: _522  and  _523
REMARK  205  A    between atoms: _525  and  _527
REMARK  206  A    between atoms: _527  and  _528
REMARK  207  A    between atoms: _527  and  _530
REMARK  208  A    between atoms: _530  and  _531
REMARK  209  A    between atoms: _537  and  _539
REMARK  210  A    between atoms: _539  and  _540
REMARK  211  A    between atoms: _539  and  _542
REMARK  212  A    between atoms: _542  and  _543
REMARK  213  A    between atoms: _549  and  _551
REMARK  214  A    between atoms: _551  and  _552
REMARK  215  A    between atoms: _551  and  _554
REMARK  216  A    between atoms: _554  and  _555
REMARK  217  A    between atoms: _558  and  _560
REMARK  218  A    between atoms: _560  and  _561
REMARK  219  A    between atoms: _560  and  _563
REMARK  220  A    between atoms: _563  and  _564
REMARK  221  A    between atoms: _567  and  _569
REMARK  222  A    between atoms: _569  and  _570
REMARK  223  A    between atoms: _569  and  _572
REMARK  224  A    between atoms: _572  and  _573
REMARK  225  A    between atoms: _578  and  _579
REMARK  226  A    between atoms: _581  and  _583
REMARK  227  A    between atoms: _583  and  _584
REMARK  228  A    between atoms: _586  and  _588
REMARK  229  A    between atoms: _588  and  _589
REMARK  230  A    between atoms: _592  and  _594
REMARK  231  A    between atoms: _594  and  _595
REMARK  232  A    between atoms: _594  and  _597
REMARK  233  A    between atoms: _597  and  _598
REMARK  234  A    between atoms: _601  and  _603
REMARK  235  A    between atoms: _603  and  _604
REMARK  236  A    between atoms: _603  and  _606
REMARK  237  A    between atoms: _606  and  _607
REMARK  238  A    between atoms: _609  and  _611
REMARK  239  A    between atoms: _611  and  _612
REMARK  240  A    between atoms: _611  and  _614
REMARK  241  A    between atoms: _617  and  _619
REMARK  242  A    between atoms: _619  and  _620
REMARK  243  A    between atoms: _619  and  _622
REMARK  244  A    between atoms: _622  and  _623
REMARK  245  A    between atoms: _628  and  _630
REMARK  246  A    between atoms: _630  and  _631
REMARK  247  A    between atoms: _630  and  _633
REMARK  248  A    between atoms: _633  and  _634
REMARK  249  A    between atoms: _644  and  _646
REMARK  250  A    between atoms: _646  and  _647
REMARK  251  A    between atoms: _646  and  _649
REMARK  252  A    between atoms: _649  and  _650
REMARK  253  A    between atoms: _650  and  _651
REMARK  254  A    between atoms: _653  and  _655
REMARK  255  A    between atoms: _655  and  _656
REMARK  256  A    between atoms: _655  and  _658
REMARK  257  A    between atoms: _658  and  _659
REMARK  258  A    between atoms: _662  and  _664
REMARK  259  A    between atoms: _664  and  _665
REMARK  260  A    between atoms: _664  and  _667
REMARK  261  A    between atoms: _667  and  _668
REMARK  262  A    between atoms: _673  and  _675
REMARK  263  A    between atoms: _675  and  _676
REMARK  264  A    between atoms: _678  and  _680
REMARK  265  A    between atoms: _680  and  _681
REMARK  266  A    between atoms: _680  and  _683
REMARK  267  A    between atoms: _683  and  _684
REMARK  268  A    between atoms: _689  and  _690
REMARK  269  A    between atoms: _692  and  _694
REMARK  270  A    between atoms: _694  and  _695
REMARK  271  A    between atoms: _694  and  _697
REMARK  272  A    between atoms: _697  and  _698
REMARK  273  A    between atoms: _698  and  _699
REMARK  274  A    between atoms: _702  and  _704
REMARK  275  A    between atoms: _704  and  _705
REMARK  276  A    between atoms: _704  and  _707
REMARK  277  A    between atoms: _707  and  _708
REMARK                            x       y       z     vdW  Elec       q    Type
REMARK                         _______ _______ _______ _____ _____    ______ ____
ROOT
ATOM      1  O   HOH     1      -2.273  66.605  77.009  0.00  0.00    +0.000 OA
ENDROOT
TORSDOF 0
REMARK  Name = ../refined-set-2016/1h22/1h22_pocket.pdb
REMARK  277 active torsions:
REMARK  status: ('A' for Active; 'I' for Inactive)
REMARK    1  A    between atoms: _1  and  _3
REMARK    2  A    between atoms: _3  and  _4
REMARK    3  A    between atoms: _3  and  _6
REMARK    4  A    between atoms: _6  and  _7
REMARK    5  A    between atoms: _7  and  _8
REMARK    6  A    between atoms: _13  and  _15
REMARK    7  A    between atoms: _15  and  _16
REMARK    8  A    between atoms: _15  and  _18
REMARK    9  A    between atoms: _18  and  _19
REMARK   10  A    between atoms: _24  and  _25
REMARK   11  A    between atoms: _27  and  _29
REMARK   12  A    between atoms: _29  and  _30
REMARK   13  A    between atoms: _29  and  _32
REMARK   14  A    between atoms: _35  and  _37
REMARK   15  A    between atoms: _37  and  _38
REMARK   16  A    between atoms: _37  and  _40
REMARK   17  A    between atoms: _40  and  _41
REMARK   18  A    between atoms: _44  and  _46
REMARK   19  A    between atoms: _46  and  _47
REMARK   20  A    between atoms: _46  and  _49
REMARK   21  A    between atoms: _49  and  _50
REMARK   22  A    between atoms: _50  and  _51
REMARK   23  A    between atoms: _54  and  _56
REMARK   24  A    between atoms: _56  and  _57
REMARK   25  A    between atoms: _56  and  _59
REMARK   26  A    between atoms: _59  and  _60
REMARK   27  A    between atoms: _60  and  _61
REMARK   28  A    between atoms: _66  and  _68
REMARK   29  A    between atoms: _68  and  _69
REMARK   30  A    between atoms: _68  and  _71
REMARK   31  A    between atoms: _71  and  _72
REMARK   32  A    between atoms: _78  and  _80
REMARK   33  A    between atoms: _80  and  _81
REMARK   34  A    between atoms: _83  and  _85
REMARK   35  A    between atoms: _85  and  _86
REMARK   36  A    between atoms: _85  and  _88
REMARK   37  A    between atoms: _88  and  _89
REMARK   38  A    between atoms: _91  and  _93
REMARK   39  A    between atoms: _93  and  _94
REMARK   40  A    between atoms: _93  and  _96
REMARK   41  A    between atoms: _96  and  _97
REMARK   42  A    between atoms: _97  and  _98
REMARK   43  A    between atoms: _100  and  _102
REMARK   44  A    between atoms: _102  and  _103
REMARK   45  A    between atoms: _102  and  _105
REMARK   46  A    between atoms: _105  and  _106
REMARK   47  A    between atoms: _116  and  _118
REMARK   48  A    between atoms: _118  and  _119
REMARK   49  A    between atoms: _118  and  _121
REMARK   50  A    between atoms: _121  and  _122
REMARK   51  A    between atoms: _128  and  _129
REMARK   52  A    between atoms: _134  and  _136
REMARK   53  A    between atoms: _136  and  _137
REMARK   54  A    between atoms: _136  and  _139
REMARK   55  A    between atoms: _139  and  _140
REMARK   56  A    between atoms: _150  and  _152
REMARK   57  A    between atoms: _152  and  _153
REMARK   58  A    between atoms: _152  and  _155
REMARK   59  A    between atoms: _155  and  _156
REMARK   60  A    between atoms: _159  and  _161
REMARK   61  A    between atoms: _161  and  _162
REMARK   62  A    between atoms: _161  and  _164
REMARK   63  A    between atoms: _164  and  _165
REMARK   64  A    between atoms: _170  and  _171
REMARK   65  A    between atoms: _173  and  _175
REMARK   66  A    between atoms: _175  and  _176
REMARK   67  A    between atoms: _178  and  _180
REMARK   68  A    between atoms: _180  and  _181
REMARK   69  A    between atoms: _183  and  _185
REMARK   70  A    between atoms: _185  and  _186
REMARK   71  A    between atoms: _188  and  _190
REMARK   72  A    between atoms: _190  and  _191
REMARK   73  A    between atoms: _190  and  _193
REMARK   74  A    between atoms: _193  and  _194
REMARK   75  A    between atoms: _200  and  _202
REMARK   76  A    between atoms: _202  and  _203
REMARK   77  A    between atoms: _202  and  _205
REMARK   78  A    between atoms: _205  and  _206
REMARK   79  A    between atoms: _211  and  _212
REMARK   80  A    between atoms: _214  and  _216
REMARK   81  A    between atoms: _216  and  _217
REMARK   82  A    between atoms: _216  and  _219
REMARK   83  A    between atoms: _219  and  _220
REMARK   84  A    between atoms: _222  and  _224
REMARK   85  A    between atoms: _224  and  _225
REMARK   86  A    between atoms: _227  and  _229
REMARK   87  A    between atoms: _229  and  _230
REMARK   88  A    between atoms: _229  and  _232
REMARK   89  A    between atoms: _232  and  _233
REMARK   90  A    between atoms: _235  and  _237
REMARK   91  A    between atoms: _237  and  _238
REMARK   92  A    between atoms: _237  and  _240
REMARK   93  A    between atoms: _240  and  _241
REMARK   94  A    between atoms: _243  and  _245
REMARK   95  A    between atoms: _245  and  _246
REMARK   96  A    between atoms: _245  and  _248
REMARK   97  A    between atoms: _248  and  _249
REMARK   98  A    between atoms: _252  and  _254
REMARK   99  A    between atoms: _254  and  _255
REMARK  100  A    between atoms: _254  and  _257
REMARK  101  A    between atoms: _257  and  _258
REMARK  102  A    between atoms: _261  and  _263
REMARK  103  A    between atoms: _263  and  _264
REMARK  104  A    between atoms: _263  and  _266
REMARK  105  A    between atoms: _269  and  _271
REMARK  106  A    between atoms: _271  and  _272
REMARK  107  A    between atoms: _271  and  _274
REMARK  108  A    between atoms: _274  and  _275
REMARK  109  A    between atoms: _280  and  _281
REMARK  110  A    between atoms: _283  and  _285
REMARK  111  A    between atoms: _285  and  _286
REMARK  112  A    between atoms: _285  and  _288
REMARK  113  A    between atoms: _288  and  _289
REMARK  114  A    between atoms: _294  and  _295
REMARK  115  A    between atoms: _297  and  _299
REMARK  116  A    between atoms: _299  and  _300
REMARK  117  A    between atoms: _299  and  _302
REMARK  118  A    between atoms: _305  and  _307
REMARK  119  A    between atoms: _307  and  _308
REMARK  120  A    between atoms: _307  and  _310
REMARK  121  A    between atoms: _310  and  _311
REMARK  122  A    between atoms: _311  and  _312
REMARK  123  A    between atoms: _315  and  _317
REMARK  124  A    between atoms: _317  and  _318
REMARK  125  A    between atoms: _317  and  _320
REMARK  126  A    between atoms: _320  and  _321
REMARK  127  A    between atoms: _323  and  _325
REMARK  128  A    between atoms: _325  and  _326
REMARK  129  A    between atoms: _329  and  _331
REMARK  130  A    between atoms: _331  and  _332
REMARK  131  A    between atoms: _334  and  _336
REMARK  132  A    between atoms: _336  and  _337
REMARK  133  A    between atoms: _336  and  _339
REMARK  134  A    between atoms: _339  and  _340
REMARK  135  A    between atoms: _342  and  _344
REMARK  136  A    between atoms: _344  and  _345
REMARK  137  A    between atoms: _344  and  _347
REMARK  138  A    between atoms: _347  and  _348
REMARK  139  A    between atoms: _358  and  _360
REMARK  140  A    between atoms: _360  and  _361
REMARK  141  A    between atoms: _360  and  _363
REMARK  142  A    between atoms: _363  and  _364
REMARK  143  A    between atoms: _364  and  _365
REMARK  144  A    between atoms: _368  and  _370
REMARK  145  A    between atoms: _370  and  _371
REMARK  146  A    between atoms: _370  and  _373
REMARK  147  A    between atoms: _373  and  _374
REMARK  148  A    between atoms: _384  and  _386
REMARK  149  A    between atoms: _386  and  _387
REMARK  150  A    between atoms: _386  and  _389
REMARK  151  A    between atoms: _389  and  _390
REMARK  152  A    between atoms: _395  and  _397
REMARK  153  A    between atoms: _397  and  _398
REMARK  154  A    between atoms: _397  and  _400
REMARK  155  A    between atoms: _400  and  _401
REMARK  156  A    between atoms: _404  and  _406
REMARK  157  A    between atoms: _406  and  _407
REMARK  158  A    between atoms: _406  and  _409
REMARK  159  A    between atoms: _409  and  _410
REMARK  160  A    between atoms: _416  and  _418
REMARK  161  A    between atoms: _418  and  _419
REMARK  162  A    between atoms: _418  and  _421
REMARK  163  A    between atoms: _421  and  _422
REMARK  164  A    between atoms: _425  and  _427
REMARK  165  A    between atoms: _427  and  _428
REMARK  166  A    between atoms: _427  and  _430
REMARK  167  A    between atoms: _430  and  _431
REMARK  168  A    between atoms: _433  and  _435
REMARK  169  A    between atoms: _435  and  _436
REMARK  170  A    between atoms: _435  and  _438
REMARK  171  A    between atoms: _438  and  _439
REMARK  172  A    between atoms: _442  and  _444
REMARK  173  A    between atoms: _444  and  _445
REMARK  174  A    between atoms: _444  and  _447
REMARK  175  A    between atoms: _447  and  _448
REMARK  176  A    between atoms: _454  and  _456
REMARK  177  A    between atoms: _456  and  _457
REMARK  178  A    between atoms: _456  and  _459
REMARK  179  A    between atoms: _459  and  _460
REMARK  180  A    between atoms: _460  and  _461
REMARK  181  A    between atoms: _461  and  _462
REMARK  182  A    between atoms: _471  and  _473
REMARK  183  A    between atoms: _473  and  _474
REMARK  184  A    between atoms: _473  and  _476
REMARK  185  A    between atoms: _476  and  _477
REMARK  186  A    between atoms: _483  and  _485
REMARK  187  A    between atoms: _485  and  _486
REMARK  188  A    between atoms: _485  and  _488
REMARK  189  A    between atoms: _488  and  _489
REMARK  190  A    between atoms: _491  and  _493
REMARK  191  A    between atoms: _493  and  _494
REMARK  192  A    between atoms: _493  and  _496
REMARK  193  A    between atoms: _496  and  _497
REMARK  194  A    between atoms: _502  and  _504
REMARK  195  A    between atoms: _504  and  _505
REMARK  196  A    between atoms: _504  and  _507
REMARK  197  A    between atoms: _507  and  _508
REMARK  198  A    between atoms: _508  and  _509
REMARK  199  A    between atoms: _512  and  _514
REMARK  200  A    between atoms: _514  and  _515
REMARK  201  A    between atoms: _517  and  _519
REMARK  202  A    between atoms: _519  and  _520
REMARK  203  A    between atoms: _519  and  _522
REMARK  204  A    between atoms: _522  and  _523
REMARK  205  A    between atoms: _525  and  _527
REMARK  206  A    between atoms: _527  and  _528
REMARK  207  A    between atoms: _527  and  _530
REMARK  208  A    between atoms: _530  and  _531
REMARK  209  A    between atoms: _537  and  _539
REMARK  210  A    between atoms: _539  and  _540
REMARK  211  A    between atoms: _539  and  _542
REMARK  212  A    between atoms: _542  and  _543
REMARK  213  A    between atoms: _549  and  _551
REMARK  214  A    between atoms: _551  and  _552
REMARK  215  A    between atoms: _551  and  _554
REMARK  216  A    between atoms: _554  and  _555
REMARK  217  A    between atoms: _558  and  _560
REMARK  218  A    between atoms: _560  and  _561
REMARK  219  A    between atoms: _560  and  _563
REMARK  220  A    between atoms: _563  and  _564
REMARK  221  A    between atoms: _567  and  _569
REMARK  222  A    between atoms: _569  and  _570
REMARK  223  A    between atoms: _569  and  _572
REMARK  224  A    between atoms: _572  and  _573
REMARK  225  A    between atoms: _578  and  _579
REMARK  226  A    between atoms: _581  and  _583
REMARK  227  A    between atoms: _583  and  _584
REMARK  228  A    between atoms: _586  and  _588
REMARK  229  A    between atoms: _588  and  _589
REMARK  230  A    between atoms: _592  and  _594
REMARK  231  A    between atoms: _594  and  _595
REMARK  232  A    between atoms: _594  and  _597
REMARK  233  A    between atoms: _597  and  _598
REMARK  234  A    between atoms: _601  and  _603
REMARK  235  A    between atoms: _603  and  _604
REMARK  236  A    between atoms: _603  and  _606
REMARK  237  A    between atoms: _606  and  _607
REMARK  238  A    between atoms: _609  and  _611
REMARK  239  A    between atoms: _611  and  _612
REMARK  240  A    between atoms: _611  and  _614
REMARK  241  A    between atoms: _617  and  _619
REMARK  242  A    between atoms: _619  and  _620
REMARK  243  A    between atoms: _619  and  _622
REMARK  244  A    between atoms: _622  and  _623
REMARK  245  A    between atoms: _628  and  _630
REMARK  246  A    between atoms: _630  and  _631
REMARK  247  A    between atoms: _630  and  _633
REMARK  248  A    between atoms: _633  and  _634
REMARK  249  A    between atoms: _644  and  _646
REMARK  250  A    between atoms: _646  and  _647
REMARK  251  A    between atoms: _646  and  _649
REMARK  252  A    between atoms: _649  and  _650
REMARK  253  A    between atoms: _650  and  _651
REMARK  254  A    between atoms: _653  and  _655
REMARK  255  A    between atoms: _655  and  _656
REMARK  256  A    between atoms: _655  and  _658
REMARK  257  A    between atoms: _658  and  _659
REMARK  258  A    between atoms: _662  and  _664
REMARK  259  A    between atoms: _664  and  _665
REMARK  260  A    between atoms: _664  and  _667
REMARK  261  A    between atoms: _667  and  _668
REMARK  262  A    between atoms: _673  and  _675
REMARK  263  A    between atoms: _675  and  _676
REMARK  264  A    between atoms: _678  and  _680
REMARK  265  A    between atoms: _680  and  _681
REMARK  266  A    between atoms: _680  and  _683
REMARK  267  A    between atoms: _683  and  _684
REMARK  268  A    between atoms: _689  and  _690
REMARK  269  A    between atoms: _692  and  _694
REMARK  270  A    between atoms: _694  and  _695
REMARK  271  A    between atoms: _694  and  _697
REMARK  272  A    between atoms: _697  and  _698
REMARK  273  A    between atoms: _698  and  _699
REMARK  274  A    between atoms: _702  and  _704
REMARK  275  A    between atoms: _704  and  _705
REMARK  276  A    between atoms: _704  and  _707
REMARK  277  A    between atoms: _707  and  _708
REMARK                            x       y       z     vdW  Elec       q    Type
REMARK                         _______ _______ _______ _____ _____    ______ ____
ROOT
ATOM      1  O   HOH     1       0.814  70.179  68.748  0.00  0.00    +0.000 OA
ENDROOT
TORSDOF 0
REMARK  Name = ../refined-set-2016/1h22/1h22_pocket.pdb
REMARK  277 active torsions:
REMARK  status: ('A' for Active; 'I' for Inactive)
REMARK    1  A    between atoms: _1  and  _3
REMARK    2  A    between atoms: _3  and  _4
REMARK    3  A    between atoms: _3  and  _6
REMARK    4  A    between atoms: _6  and  _7
REMARK    5  A    between atoms: _7  and  _8
REMARK    6  A    between atoms: _13  and  _15
REMARK    7  A    between atoms: _15  and  _16
REMARK    8  A    between atoms: _15  and  _18
REMARK    9  A    between atoms: _18  and  _19
REMARK   10  A    between atoms: _24  and  _25
REMARK   11  A    between atoms: _27  and  _29
REMARK   12  A    between atoms: _29  and  _30
REMARK   13  A    between atoms: _29  and  _32
REMARK   14  A    between atoms: _35  and  _37
REMARK   15  A    between atoms: _37  and  _38
REMARK   16  A    between atoms: _37  and  _40
REMARK   17  A    between atoms: _40  and  _41
REMARK   18  A    between atoms: _44  and  _46
REMARK   19  A    between atoms: _46  and  _47
REMARK   20  A    between atoms: _46  and  _49
REMARK   21  A    between atoms: _49  and  _50
REMARK   22  A    between atoms: _50  and  _51
REMARK   23  A    between atoms: _54  and  _56
REMARK   24  A    between atoms: _56  and  _57
REMARK   25  A    between atoms: _56  and  _59
REMARK   26  A    between atoms: _59  and  _60
REMARK   27  A    between atoms: _60  and  _61
REMARK   28  A    between atoms: _66  and  _68
REMARK   29  A    between atoms: _68  and  _69
REMARK   30  A    between atoms: _68  and  _71
REMARK   31  A    between atoms: _71  and  _72
REMARK   32  A    between atoms: _78  and  _80
REMARK   33  A    between atoms: _80  and  _81
REMARK   34  A    between atoms: _83  and  _85
REMARK   35  A    between atoms: _85  and  _86
REMARK   36  A    between atoms: _85  and  _88
REMARK   37  A    between atoms: _88  and  _89
REMARK   38  A    between atoms: _91  and  _93
REMARK   39  A    between atoms: _93  and  _94
REMARK   40  A    between atoms: _93  and  _96
REMARK   41  A    between atoms: _96  and  _97
REMARK   42  A    between atoms: _97  and  _98
REMARK   43  A    between atoms: _100  and  _102
REMARK   44  A    between atoms: _102  and  _103
REMARK   45  A    between atoms: _102  and  _105
REMARK   46  A    between atoms: _105  and  _106
REMARK   47  A    between atoms: _116  and  _118
REMARK   48  A    between atoms: _118  and  _119
REMARK   49  A    between atoms: _118  and  _121
REMARK   50  A    between atoms: _121  and  _122
REMARK   51  A    between atoms: _128  and  _129
REMARK   52  A    between atoms: _134  and  _136
REMARK   53  A    between atoms: _136  and  _137
REMARK   54  A    between atoms: _136  and  _139
REMARK   55  A    between atoms: _139  and  _140
REMARK   56  A    between atoms: _150  and  _152
REMARK   57  A    between atoms: _152  and  _153
REMARK   58  A    between atoms: _152  and  _155
REMARK   59  A    between atoms: _155  and  _156
REMARK   60  A    between atoms: _159  and  _161
REMARK   61  A    between atoms: _161  and  _162
REMARK   62  A    between atoms: _161  and  _164
REMARK   63  A    between atoms: _164  and  _165
REMARK   64  A    between atoms: _170  and  _171
REMARK   65  A    between atoms: _173  and  _175
REMARK   66  A    between atoms: _175  and  _176
REMARK   67  A    between atoms: _178  and  _180
REMARK   68  A    between atoms: _180  and  _181
REMARK   69  A    between atoms: _183  and  _185
REMARK   70  A    between atoms: _185  and  _186
REMARK   71  A    between atoms: _188  and  _190
REMARK   72  A    between atoms: _190  and  _191
REMARK   73  A    between atoms: _190  and  _193
REMARK   74  A    between atoms: _193  and  _194
REMARK   75  A    between atoms: _200  and  _202
REMARK   76  A    between atoms: _202  and  _203
REMARK   77  A    between atoms: _202  and  _205
REMARK   78  A    between atoms: _205  and  _206
REMARK   79  A    between atoms: _211  and  _212
REMARK   80  A    between atoms: _214  and  _216
REMARK   81  A    between atoms: _216  and  _217
REMARK   82  A    between atoms: _216  and  _219
REMARK   83  A    between atoms: _219  and  _220
REMARK   84  A    between atoms: _222  and  _224
REMARK   85  A    between atoms: _224  and  _225
REMARK   86  A    between atoms: _227  and  _229
REMARK   87  A    between atoms: _229  and  _230
REMARK   88  A    between atoms: _229  and  _232
REMARK   89  A    between atoms: _232  and  _233
REMARK   90  A    between atoms: _235  and  _237
REMARK   91  A    between atoms: _237  and  _238
REMARK   92  A    between atoms: _237  and  _240
REMARK   93  A    between atoms: _240  and  _241
REMARK   94  A    between atoms: _243  and  _245
REMARK   95  A    between atoms: _245  and  _246
REMARK   96  A    between atoms: _245  and  _248
REMARK   97  A    between atoms: _248  and  _249
REMARK   98  A    between atoms: _252  and  _254
REMARK   99  A    between atoms: _254  and  _255
REMARK  100  A    between atoms: _254  and  _257
REMARK  101  A    between atoms: _257  and  _258
REMARK  102  A    between atoms: _261  and  _263
REMARK  103  A    between atoms: _263  and  _264
REMARK  104  A    between atoms: _263  and  _266
REMARK  105  A    between atoms: _269  and  _271
REMARK  106  A    between atoms: _271  and  _272
REMARK  107  A    between atoms: _271  and  _274
REMARK  108  A    between atoms: _274  and  _275
REMARK  109  A    between atoms: _280  and  _281
REMARK  110  A    between atoms: _283  and  _285
REMARK  111  A    between atoms: _285  and  _286
REMARK  112  A    between atoms: _285  and  _288
REMARK  113  A    between atoms: _288  and  _289
REMARK  114  A    between atoms: _294  and  _295
REMARK  115  A    between atoms: _297  and  _299
REMARK  116  A    between atoms: _299  and  _300
REMARK  117  A    between atoms: _299  and  _302
REMARK  118  A    between atoms: _305  and  _307
REMARK  119  A    between atoms: _307  and  _308
REMARK  120  A    between atoms: _307  and  _310
REMARK  121  A    between atoms: _310  and  _311
REMARK  122  A    between atoms: _311  and  _312
REMARK  123  A    between atoms: _315  and  _317
REMARK  124  A    between atoms: _317  and  _318
REMARK  125  A    between atoms: _317  and  _320
REMARK  126  A    between atoms: _320  and  _321
REMARK  127  A    between atoms: _323  and  _325
REMARK  128  A    between atoms: _325  and  _326
REMARK  129  A    between atoms: _329  and  _331
REMARK  130  A    between atoms: _331  and  _332
REMARK  131  A    between atoms: _334  and  _336
REMARK  132  A    between atoms: _336  and  _337
REMARK  133  A    between atoms: _336  and  _339
REMARK  134  A    between atoms: _339  and  _340
REMARK  135  A    between atoms: _342  and  _344
REMARK  136  A    between atoms: _344  and  _345
REMARK  137  A    between atoms: _344  and  _347
REMARK  138  A    between atoms: _347  and  _348
REMARK  139  A    between atoms: _358  and  _360
REMARK  140  A    between atoms: _360  and  _361
REMARK  141  A    between atoms: _360  and  _363
REMARK  142  A    between atoms: _363  and  _364
REMARK  143  A    between atoms: _364  and  _365
REMARK  144  A    between atoms: _368  and  _370
REMARK  145  A    between atoms: _370  and  _371
REMARK  146  A    between atoms: _370  and  _373
REMARK  147  A    between atoms: _373  and  _374
REMARK  148  A    between atoms: _384  and  _386
REMARK  149  A    between atoms: _386  and  _387
REMARK  150  A    between atoms: _386  and  _389
REMARK  151  A    between atoms: _389  and  _390
REMARK  152  A    between atoms: _395  and  _397
REMARK  153  A    between atoms: _397  and  _398
REMARK  154  A    between atoms: _397  and  _400
REMARK  155  A    between atoms: _400  and  _401
REMARK  156  A    between atoms: _404  and  _406
REMARK  157  A    between atoms: _406  and  _407
REMARK  158  A    between atoms: _406  and  _409
REMARK  159  A    between atoms: _409  and  _410
REMARK  160  A    between atoms: _416  and  _418
REMARK  161  A    between atoms: _418  and  _419
REMARK  162  A    between atoms: _418  and  _421
REMARK  163  A    between atoms: _421  and  _422
REMARK  164  A    between atoms: _425  and  _427
REMARK  165  A    between atoms: _427  and  _428
REMARK  166  A    between atoms: _427  and  _430
REMARK  167  A    between atoms: _430  and  _431
REMARK  168  A    between atoms: _433  and  _435
REMARK  169  A    between atoms: _435  and  _436
REMARK  170  A    between atoms: _435  and  _438
REMARK  171  A    between atoms: _438  and  _439
REMARK  172  A    between atoms: _442  and  _444
REMARK  173  A    between atoms: _444  and  _445
REMARK  174  A    between atoms: _444  and  _447
REMARK  175  A    between atoms: _447  and  _448
REMARK  176  A    between atoms: _454  and  _456
REMARK  177  A    between atoms: _456  and  _457
REMARK  178  A    between atoms: _456  and  _459
REMARK  179  A    between atoms: _459  and  _460
REMARK  180  A    between atoms: _460  and  _461
REMARK  181  A    between atoms: _461  and  _462
REMARK  182  A    between atoms: _471  and  _473
REMARK  183  A    between atoms: _473  and  _474
REMARK  184  A    between atoms: _473  and  _476
REMARK  185  A    between atoms: _476  and  _477
REMARK  186  A    between atoms: _483  and  _485
REMARK  187  A    between atoms: _485  and  _486
REMARK  188  A    between atoms: _485  and  _488
REMARK  189  A    between atoms: _488  and  _489
REMARK  190  A    between atoms: _491  and  _493
REMARK  191  A    between atoms: _493  and  _494
REMARK  192  A    between atoms: _493  and  _496
REMARK  193  A    between atoms: _496  and  _497
REMARK  194  A    between atoms: _502  and  _504
REMARK  195  A    between atoms: _504  and  _505
REMARK  196  A    between atoms: _504  and  _507
REMARK  197  A    between atoms: _507  and  _508
REMARK  198  A    between atoms: _508  and  _509
REMARK  199  A    between atoms: _512  and  _514
REMARK  200  A    between atoms: _514  and  _515
REMARK  201  A    between atoms: _517  and  _519
REMARK  202  A    between atoms: _519  and  _520
REMARK  203  A    between atoms: _519  and  _522
REMARK  204  A    between atoms: _522  and  _523
REMARK  205  A    between atoms: _525  and  _527
REMARK  206  A    between atoms: _527  and  _528
REMARK  207  A    between atoms: _527  and  _530
REMARK  208  A    between atoms: _530  and  _531
REMARK  209  A    between atoms: _537  and  _539
REMARK  210  A    between atoms: _539  and  _540
REMARK  211  A    between atoms: _539  and  _542
REMARK  212  A    between atoms: _542  and  _543
REMARK  213  A    between atoms: _549  and  _551
REMARK  214  A    between atoms: _551  and  _552
REMARK  215  A    between atoms: _551  and  _554
REMARK  216  A    between atoms: _554  and  _555
REMARK  217  A    between atoms: _558  and  _560
REMARK  218  A    between atoms: _560  and  _561
REMARK  219  A    between atoms: _560  and  _563
REMARK  220  A    between atoms: _563  and  _564
REMARK  221  A    between atoms: _567  and  _569
REMARK  222  A    between atoms: _569  and  _570
REMARK  223  A    between atoms: _569  and  _572
REMARK  224  A    between atoms: _572  and  _573
REMARK  225  A    between atoms: _578  and  _579
REMARK  226  A    between atoms: _581  and  _583
REMARK  227  A    between atoms: _583  and  _584
REMARK  228  A    between atoms: _586  and  _588
REMARK  229  A    between atoms: _588  and  _589
REMARK  230  A    between atoms: _592  and  _594
REMARK  231  A    between atoms: _594  and  _595
REMARK  232  A    between atoms: _594  and  _597
REMARK  233  A    between atoms: _597  and  _598
REMARK  234  A    between atoms: _601  and  _603
REMARK  235  A    between atoms: _603  and  _604
REMARK  236  A    between atoms: _603  and  _606
REMARK  237  A    between atoms: _606  and  _607
REMARK  238  A    between atoms: _609  and  _611
REMARK  239  A    between atoms: _611  and  _612
REMARK  240  A    between atoms: _611  and  _614
REMARK  241  A    between atoms: _617  and  _619
REMARK  242  A    between atoms: _619  and  _620
REMARK  243  A    between atoms: _619  and  _622
REMARK  244  A    between atoms: _622  and  _623
REMARK  245  A    between atoms: _628  and  _630
REMARK  246  A    between atoms: _630  and  _631
REMARK  247  A    between atoms: _630  and  _633
REMARK  248  A    between atoms: _633  and  _634
REMARK  249  A    between atoms: _644  and  _646
REMARK  250  A    between atoms: _646  and  _647
REMARK  251  A    between atoms: _646  and  _649
REMARK  252  A    between atoms: _649  and  _650
REMARK  253  A    between atoms: _650  and  _651
REMARK  254  A    between atoms: _653  and  _655
REMARK  255  A    between atoms: _655  and  _656
REMARK  256  A    between atoms: _655  and  _658
REMARK  257  A    between atoms: _658  and  _659
REMARK  258  A    between atoms: _662  and  _664
REMARK  259  A    between atoms: _664  and  _665
REMARK  260  A    between atoms: _664  and  _667
REMARK  261  A    between atoms: _667  and  _668
REMARK  262  A    between atoms: _673  and  _675
REMARK  263  A    between atoms: _675  and  _676
REMARK  264  A    between atoms: _678  and  _680
REMARK  265  A    between atoms: _680  and  _681
REMARK  266  A    between atoms: _680  and  _683
REMARK  267  A    between atoms: _683  and  _684
REMARK  268  A    between atoms: _689  and  _690
REMARK  269  A    between atoms: _692  and  _694
REMARK  270  A    between atoms: _694  and  _695
REMARK  271  A    between atoms: _694  and  _697
REMARK  272  A    between atoms: _697  and  _698
REMARK  273  A    between atoms: _698  and  _699
REMARK  274  A    between atoms: _702  and  _704
REMARK  275  A    between atoms: _704  and  _705
REMARK  276  A    between atoms: _704  and  _707
REMARK  277  A    between atoms: _707  and  _708
REMARK                            x       y       z     vdW  Elec       q    Type
REMARK                         _______ _______ _______ _____ _____    ______ ____
ROOT
ATOM      1  O   HOH     1      -1.632  68.199  65.268  0.00  0.00    +0.000 OA
ENDROOT
TORSDOF 0
REMARK  Name = ../refined-set-2016/1h22/1h22_pocket.pdb
REMARK  277 active torsions:
REMARK  status: ('A' for Active; 'I' for Inactive)
REMARK    1  A    between atoms: _1  and  _3
REMARK    2  A    between atoms: _3  and  _4
REMARK    3  A    between atoms: _3  and  _6
REMARK    4  A    between atoms: _6  and  _7
REMARK    5  A    between atoms: _7  and  _8
REMARK    6  A    between atoms: _13  and  _15
REMARK    7  A    between atoms: _15  and  _16
REMARK    8  A    between atoms: _15  and  _18
REMARK    9  A    between atoms: _18  and  _19
REMARK   10  A    between atoms: _24  and  _25
REMARK   11  A    between atoms: _27  and  _29
REMARK   12  A    between atoms: _29  and  _30
REMARK   13  A    between atoms: _29  and  _32
REMARK   14  A    between atoms: _35  and  _37
REMARK   15  A    between atoms: _37  and  _38
REMARK   16  A    between atoms: _37  and  _40
REMARK   17  A    between atoms: _40  and  _41
REMARK   18  A    between atoms: _44  and  _46
REMARK   19  A    between atoms: _46  and  _47
REMARK   20  A    between atoms: _46  and  _49
REMARK   21  A    between atoms: _49  and  _50
REMARK   22  A    between atoms: _50  and  _51
REMARK   23  A    between atoms: _54  and  _56
REMARK   24  A    between atoms: _56  and  _57
REMARK   25  A    between atoms: _56  and  _59
REMARK   26  A    between atoms: _59  and  _60
REMARK   27  A    between atoms: _60  and  _61
REMARK   28  A    between atoms: _66  and  _68
REMARK   29  A    between atoms: _68  and  _69
REMARK   30  A    between atoms: _68  and  _71
REMARK   31  A    between atoms: _71  and  _72
REMARK   32  A    between atoms: _78  and  _80
REMARK   33  A    between atoms: _80  and  _81
REMARK   34  A    between atoms: _83  and  _85
REMARK   35  A    between atoms: _85  and  _86
REMARK   36  A    between atoms: _85  and  _88
REMARK   37  A    between atoms: _88  and  _89
REMARK   38  A    between atoms: _91  and  _93
REMARK   39  A    between atoms: _93  and  _94
REMARK   40  A    between atoms: _93  and  _96
REMARK   41  A    between atoms: _96  and  _97
REMARK   42  A    between atoms: _97  and  _98
REMARK   43  A    between atoms: _100  and  _102
REMARK   44  A    between atoms: _102  and  _103
REMARK   45  A    between atoms: _102  and  _105
REMARK   46  A    between atoms: _105  and  _106
REMARK   47  A    between atoms: _116  and  _118
REMARK   48  A    between atoms: _118  and  _119
REMARK   49  A    between atoms: _118  and  _121
REMARK   50  A    between atoms: _121  and  _122
REMARK   51  A    between atoms: _128  and  _129
REMARK   52  A    between atoms: _134  and  _136
REMARK   53  A    between atoms: _136  and  _137
REMARK   54  A    between atoms: _136  and  _139
REMARK   55  A    between atoms: _139  and  _140
REMARK   56  A    between atoms: _150  and  _152
REMARK   57  A    between atoms: _152  and  _153
REMARK   58  A    between atoms: _152  and  _155
REMARK   59  A    between atoms: _155  and  _156
REMARK   60  A    between atoms: _159  and  _161
REMARK   61  A    between atoms: _161  and  _162
REMARK   62  A    between atoms: _161  and  _164
REMARK   63  A    between atoms: _164  and  _165
REMARK   64  A    between atoms: _170  and  _171
REMARK   65  A    between atoms: _173  and  _175
REMARK   66  A    between atoms: _175  and  _176
REMARK   67  A    between atoms: _178  and  _180
REMARK   68  A    between atoms: _180  and  _181
REMARK   69  A    between atoms: _183  and  _185
REMARK   70  A    between atoms: _185  and  _186
REMARK   71  A    between atoms: _188  and  _190
REMARK   72  A    between atoms: _190  and  _191
REMARK   73  A    between atoms: _190  and  _193
REMARK   74  A    between atoms: _193  and  _194
REMARK   75  A    between atoms: _200  and  _202
REMARK   76  A    between atoms: _202  and  _203
REMARK   77  A    between atoms: _202  and  _205
REMARK   78  A    between atoms: _205  and  _206
REMARK   79  A    between atoms: _211  and  _212
REMARK   80  A    between atoms: _214  and  _216
REMARK   81  A    between atoms: _216  and  _217
REMARK   82  A    between atoms: _216  and  _219
REMARK   83  A    between atoms: _219  and  _220
REMARK   84  A    between atoms: _222  and  _224
REMARK   85  A    between atoms: _224  and  _225
REMARK   86  A    between atoms: _227  and  _229
REMARK   87  A    between atoms: _229  and  _230
REMARK   88  A    between atoms: _229  and  _232
REMARK   89  A    between atoms: _232  and  _233
REMARK   90  A    between atoms: _235  and  _237
REMARK   91  A    between atoms: _237  and  _238
REMARK   92  A    between atoms: _237  and  _240
REMARK   93  A    between atoms: _240  and  _241
REMARK   94  A    between atoms: _243  and  _245
REMARK   95  A    between atoms: _245  and  _246
REMARK   96  A    between atoms: _245  and  _248
REMARK   97  A    between atoms: _248  and  _249
REMARK   98  A    between atoms: _252  and  _254
REMARK   99  A    between atoms: _254  and  _255
REMARK  100  A    between atoms: _254  and  _257
REMARK  101  A    between atoms: _257  and  _258
REMARK  102  A    between atoms: _261  and  _263
REMARK  103  A    between atoms: _263  and  _264
REMARK  104  A    between atoms: _263  and  _266
REMARK  105  A    between atoms: _269  and  _271
REMARK  106  A    between atoms: _271  and  _272
REMARK  107  A    between atoms: _271  and  _274
REMARK  108  A    between atoms: _274  and  _275
REMARK  109  A    between atoms: _280  and  _281
REMARK  110  A    between atoms: _283  and  _285
REMARK  111  A    between atoms: _285  and  _286
REMARK  112  A    between atoms: _285  and  _288
REMARK  113  A    between atoms: _288  and  _289
REMARK  114  A    between atoms: _294  and  _295
REMARK  115  A    between atoms: _297  and  _299
REMARK  116  A    between atoms: _299  and  _300
REMARK  117  A    between atoms: _299  and  _302
REMARK  118  A    between atoms: _305  and  _307
REMARK  119  A    between atoms: _307  and  _308
REMARK  120  A    between atoms: _307  and  _310
REMARK  121  A    between atoms: _310  and  _311
REMARK  122  A    between atoms: _311  and  _312
REMARK  123  A    between atoms: _315  and  _317
REMARK  124  A    between atoms: _317  and  _318
REMARK  125  A    between atoms: _317  and  _320
REMARK  126  A    between atoms: _320  and  _321
REMARK  127  A    between atoms: _323  and  _325
REMARK  128  A    between atoms: _325  and  _326
REMARK  129  A    between atoms: _329  and  _331
REMARK  130  A    between atoms: _331  and  _332
REMARK  131  A    between atoms: _334  and  _336
REMARK  132  A    between atoms: _336  and  _337
REMARK  133  A    between atoms: _336  and  _339
REMARK  134  A    between atoms: _339  and  _340
REMARK  135  A    between atoms: _342  and  _344
REMARK  136  A    between atoms: _344  and  _345
REMARK  137  A    between atoms: _344  and  _347
REMARK  138  A    between atoms: _347  and  _348
REMARK  139  A    between atoms: _358  and  _360
REMARK  140  A    between atoms: _360  and  _361
REMARK  141  A    between atoms: _360  and  _363
REMARK  142  A    between atoms: _363  and  _364
REMARK  143  A    between atoms: _364  and  _365
REMARK  144  A    between atoms: _368  and  _370
REMARK  145  A    between atoms: _370  and  _371
REMARK  146  A    between atoms: _370  and  _373
REMARK  147  A    between atoms: _373  and  _374
REMARK  148  A    between atoms: _384  and  _386
REMARK  149  A    between atoms: _386  and  _387
REMARK  150  A    between atoms: _386  and  _389
REMARK  151  A    between atoms: _389  and  _390
REMARK  152  A    between atoms: _395  and  _397
REMARK  153  A    between atoms: _397  and  _398
REMARK  154  A    between atoms: _397  and  _400
REMARK  155  A    between atoms: _400  and  _401
REMARK  156  A    between atoms: _404  and  _406
REMARK  157  A    between atoms: _406  and  _407
REMARK  158  A    between atoms: _406  and  _409
REMARK  159  A    between atoms: _409  and  _410
REMARK  160  A    between atoms: _416  and  _418
REMARK  161  A    between atoms: _418  and  _419
REMARK  162  A    between atoms: _418  and  _421
REMARK  163  A    between atoms: _421  and  _422
REMARK  164  A    between atoms: _425  and  _427
REMARK  165  A    between atoms: _427  and  _428
REMARK  166  A    between atoms: _427  and  _430
REMARK  167  A    between atoms: _430  and  _431
REMARK  168  A    between atoms: _433  and  _435
REMARK  169  A    between atoms: _435  and  _436
REMARK  170  A    between atoms: _435  and  _438
REMARK  171  A    between atoms: _438  and  _439
REMARK  172  A    between atoms: _442  and  _444
REMARK  173  A    between atoms: _444  and  _445
REMARK  174  A    between atoms: _444  and  _447
REMARK  175  A    between atoms: _447  and  _448
REMARK  176  A    between atoms: _454  and  _456
REMARK  177  A    between atoms: _456  and  _457
REMARK  178  A    between atoms: _456  and  _459
REMARK  179  A    between atoms: _459  and  _460
REMARK  180  A    between atoms: _460  and  _461
REMARK  181  A    between atoms: _461  and  _462
REMARK  182  A    between atoms: _471  and  _473
REMARK  183  A    between atoms: _473  and  _474
REMARK  184  A    between atoms: _473  and  _476
REMARK  185  A    between atoms: _476  and  _477
REMARK  186  A    between atoms: _483  and  _485
REMARK  187  A    between atoms: _485  and  _486
REMARK  188  A    between atoms: _485  and  _488
REMARK  189  A    between atoms: _488  and  _489
REMARK  190  A    between atoms: _491  and  _493
REMARK  191  A    between atoms: _493  and  _494
REMARK  192  A    between atoms: _493  and  _496
REMARK  193  A    between atoms: _496  and  _497
REMARK  194  A    between atoms: _502  and  _504
REMARK  195  A    between atoms: _504  and  _505
REMARK  196  A    between atoms: _504  and  _507
REMARK  197  A    between atoms: _507  and  _508
REMARK  198  A    between atoms: _508  and  _509
REMARK  199  A    between atoms: _512  and  _514
REMARK  200  A    between atoms: _514  and  _515
REMARK  201  A    between atoms: _517  and  _519
REMARK  202  A    between atoms: _519  and  _520
REMARK  203  A    between atoms: _519  and  _522
REMARK  204  A    between atoms: _522  and  _523
REMARK  205  A    between atoms: _525  and  _527
REMARK  206  A    between atoms: _527  and  _528
REMARK  207  A    between atoms: _527  and  _530
REMARK  208  A    between atoms: _530  and  _531
REMARK  209  A    between atoms: _537  and  _539
REMARK  210  A    between atoms: _539  and  _540
REMARK  211  A    between atoms: _539  and  _542
REMARK  212  A    between atoms: _542  and  _543
REMARK  213  A    between atoms: _549  and  _551
REMARK  214  A    between atoms: _551  and  _552
REMARK  215  A    between atoms: _551  and  _554
REMARK  216  A    between atoms: _554  and  _555
REMARK  217  A    between atoms: _558  and  _560
REMARK  218  A    between atoms: _560  and  _561
REMARK  219  A    between atoms: _560  and  _563
REMARK  220  A    between atoms: _563  and  _564
REMARK  221  A    between atoms: _567  and  _569
REMARK  222  A    between atoms: _569  and  _570
REMARK  223  A    between atoms: _569  and  _572
REMARK  224  A    between atoms: _572  and  _573
REMARK  225  A    between atoms: _578  and  _579
REMARK  226  A    between atoms: _581  and  _583
REMARK  227  A    between atoms: _583  and  _584
REMARK  228  A    between atoms: _586  and  _588
REMARK  229  A    between atoms: _588  and  _589
REMARK  230  A    between atoms: _592  and  _594
REMARK  231  A    between atoms: _594  and  _595
REMARK  232  A    between atoms: _594  and  _597
REMARK  233  A    between atoms: _597  and  _598
REMARK  234  A    between atoms: _601  and  _603
REMARK  235  A    between atoms: _603  and  _604
REMARK  236  A    between atoms: _603  and  _606
REMARK  237  A    between atoms: _606  and  _607
REMARK  238  A    between atoms: _609  and  _611
REMARK  239  A    between atoms: _611  and  _612
REMARK  240  A    between atoms: _611  and  _614
REMARK  241  A    between atoms: _617  and  _619
REMARK  242  A    between atoms: _619  and  _620
REMARK  243  A    between atoms: _619  and  _622
REMARK  244  A    between atoms: _622  and  _623
REMARK  245  A    between atoms: _628  and  _630
REMARK  246  A    between atoms: _630  and  _631
REMARK  247  A    between atoms: _630  and  _633
REMARK  248  A    between atoms: _633  and  _634
REMARK  249  A    between atoms: _644  and  _646
REMARK  250  A    between atoms: _646  and  _647
REMARK  251  A    between atoms: _646  and  _649
REMARK  252  A    between atoms: _649  and  _650
REMARK  253  A    between atoms: _650  and  _651
REMARK  254  A    between atoms: _653  and  _655
REMARK  255  A    between atoms: _655  and  _656
REMARK  256  A    between atoms: _655  and  _658
REMARK  257  A    between atoms: _658  and  _659
REMARK  258  A    between atoms: _662  and  _664
REMARK  259  A    between atoms: _664  and  _665
REMARK  260  A    between atoms: _664  and  _667
REMARK  261  A    between atoms: _667  and  _668
REMARK  262  A    between atoms: _673  and  _675
REMARK  263  A    between atoms: _675  and  _676
REMARK  264  A    between atoms: _678  and  _680
REMARK  265  A    between atoms: _680  and  _681
REMARK  266  A    between atoms: _680  and  _683
REMARK  267  A    between atoms: _683  and  _684
REMARK  268  A    between atoms: _689  and  _690
REMARK  269  A    between atoms: _692  and  _694
REMARK  270  A    between atoms: _694  and  _695
REMARK  271  A    between atoms: _694  and  _697
REMARK  272  A    between atoms: _697  and  _698
REMARK  273  A    between atoms: _698  and  _699
REMARK  274  A    between atoms: _702  and  _704
REMARK  275  A    between atoms: _704  and  _705
REMARK  276  A    between atoms: _704  and  _707
REMARK  277  A    between atoms: _707  and  _708
REMARK                            x       y       z     vdW  Elec       q    Type
REMARK                         _______ _______ _______ _____ _____    ______ ____
ROOT
ATOM      1  O   HOH     1      -1.727  69.461  52.901  0.00  0.00    +0.000 OA
ENDROOT
TORSDOF 0
REMARK  Name = ../refined-set-2016/1h22/1h22_pocket.pdb
REMARK  277 active torsions:
REMARK  status: ('A' for Active; 'I' for Inactive)
REMARK    1  A    between atoms: _1  and  _3
REMARK    2  A    between atoms: _3  and  _4
REMARK    3  A    between atoms: _3  and  _6
REMARK    4  A    between atoms: _6  and  _7
REMARK    5  A    between atoms: _7  and  _8
REMARK    6  A    between atoms: _13  and  _15
REMARK    7  A    between atoms: _15  and  _16
REMARK    8  A    between atoms: _15  and  _18
REMARK    9  A    between atoms: _18  and  _19
REMARK   10  A    between atoms: _24  and  _25
REMARK   11  A    between atoms: _27  and  _29
REMARK   12  A    between atoms: _29  and  _30
REMARK   13  A    between atoms: _29  and  _32
REMARK   14  A    between atoms: _35  and  _37
REMARK   15  A    between atoms: _37  and  _38
REMARK   16  A    between atoms: _37  and  _40
REMARK   17  A    between atoms: _40  and  _41
REMARK   18  A    between atoms: _44  and  _46
REMARK   19  A    between atoms: _46  and  _47
REMARK   20  A    between atoms: _46  and  _49
REMARK   21  A    between atoms: _49  and  _50
REMARK   22  A    between atoms: _50  and  _51
REMARK   23  A    between atoms: _54  and  _56
REMARK   24  A    between atoms: _56  and  _57
REMARK   25  A    between atoms: _56  and  _59
REMARK   26  A    between atoms: _59  and  _60
REMARK   27  A    between atoms: _60  and  _61
REMARK   28  A    between atoms: _66  and  _68
REMARK   29  A    between atoms: _68  and  _69
REMARK   30  A    between atoms: _68  and  _71
REMARK   31  A    between atoms: _71  and  _72
REMARK   32  A    between atoms: _78  and  _80
REMARK   33  A    between atoms: _80  and  _81
REMARK   34  A    between atoms: _83  and  _85
REMARK   35  A    between atoms: _85  and  _86
REMARK   36  A    between atoms: _85  and  _88
REMARK   37  A    between atoms: _88  and  _89
REMARK   38  A    between atoms: _91  and  _93
REMARK   39  A    between atoms: _93  and  _94
REMARK   40  A    between atoms: _93  and  _96
REMARK   41  A    between atoms: _96  and  _97
REMARK   42  A    between atoms: _97  and  _98
REMARK   43  A    between atoms: _100  and  _102
REMARK   44  A    between atoms: _102  and  _103
REMARK   45  A    between atoms: _102  and  _105
REMARK   46  A    between atoms: _105  and  _106
REMARK   47  A    between atoms: _116  and  _118
REMARK   48  A    between atoms: _118  and  _119
REMARK   49  A    between atoms: _118  and  _121
REMARK   50  A    between atoms: _121  and  _122
REMARK   51  A    between atoms: _128  and  _129
REMARK   52  A    between atoms: _134  and  _136
REMARK   53  A    between atoms: _136  and  _137
REMARK   54  A    between atoms: _136  and  _139
REMARK   55  A    between atoms: _139  and  _140
REMARK   56  A    between atoms: _150  and  _152
REMARK   57  A    between atoms: _152  and  _153
REMARK   58  A    between atoms: _152  and  _155
REMARK   59  A    between atoms: _155  and  _156
REMARK   60  A    between atoms: _159  and  _161
REMARK   61  A    between atoms: _161  and  _162
REMARK   62  A    between atoms: _161  and  _164
REMARK   63  A    between atoms: _164  and  _165
REMARK   64  A    between atoms: _170  and  _171
REMARK   65  A    between atoms: _173  and  _175
REMARK   66  A    between atoms: _175  and  _176
REMARK   67  A    between atoms: _178  and  _180
REMARK   68  A    between atoms: _180  and  _181
REMARK   69  A    between atoms: _183  and  _185
REMARK   70  A    between atoms: _185  and  _186
REMARK   71  A    between atoms: _188  and  _190
REMARK   72  A    between atoms: _190  and  _191
REMARK   73  A    between atoms: _190  and  _193
REMARK   74  A    between atoms: _193  and  _194
REMARK   75  A    between atoms: _200  and  _202
REMARK   76  A    between atoms: _202  and  _203
REMARK   77  A    between atoms: _202  and  _205
REMARK   78  A    between atoms: _205  and  _206
REMARK   79  A    between atoms: _211  and  _212
REMARK   80  A    between atoms: _214  and  _216
REMARK   81  A    between atoms: _216  and  _217
REMARK   82  A    between atoms: _216  and  _219
REMARK   83  A    between atoms: _219  and  _220
REMARK   84  A    between atoms: _222  and  _224
REMARK   85  A    between atoms: _224  and  _225
REMARK   86  A    between atoms: _227  and  _229
REMARK   87  A    between atoms: _229  and  _230
REMARK   88  A    between atoms: _229  and  _232
REMARK   89  A    between atoms: _232  and  _233
REMARK   90  A    between atoms: _235  and  _237
REMARK   91  A    between atoms: _237  and  _238
REMARK   92  A    between atoms: _237  and  _240
REMARK   93  A    between atoms: _240  and  _241
REMARK   94  A    between atoms: _243  and  _245
REMARK   95  A    between atoms: _245  and  _246
REMARK   96  A    between atoms: _245  and  _248
REMARK   97  A    between atoms: _248  and  _249
REMARK   98  A    between atoms: _252  and  _254
REMARK   99  A    between atoms: _254  and  _255
REMARK  100  A    between atoms: _254  and  _257
REMARK  101  A    between atoms: _257  and  _258
REMARK  102  A    between atoms: _261  and  _263
REMARK  103  A    between atoms: _263  and  _264
REMARK  104  A    between atoms: _263  and  _266
REMARK  105  A    between atoms: _269  and  _271
REMARK  106  A    between atoms: _271  and  _272
REMARK  107  A    between atoms: _271  and  _274
REMARK  108  A    between atoms: _274  and  _275
REMARK  109  A    between atoms: _280  and  _281
REMARK  110  A    between atoms: _283  and  _285
REMARK  111  A    between atoms: _285  and  _286
REMARK  112  A    between atoms: _285  and  _288
REMARK  113  A    between atoms: _288  and  _289
REMARK  114  A    between atoms: _294  and  _295
REMARK  115  A    between atoms: _297  and  _299
REMARK  116  A    between atoms: _299  and  _300
REMARK  117  A    between atoms: _299  and  _302
REMARK  118  A    between atoms: _305  and  _307
REMARK  119  A    between atoms: _307  and  _308
REMARK  120  A    between atoms: _307  and  _310
REMARK  121  A    between atoms: _310  and  _311
REMARK  122  A    between atoms: _311  and  _312
REMARK  123  A    between atoms: _315  and  _317
REMARK  124  A    between atoms: _317  and  _318
REMARK  125  A    between atoms: _317  and  _320
REMARK  126  A    between atoms: _320  and  _321
REMARK  127  A    between atoms: _323  and  _325
REMARK  128  A    between atoms: _325  and  _326
REMARK  129  A    between atoms: _329  and  _331
REMARK  130  A    between atoms: _331  and  _332
REMARK  131  A    between atoms: _334  and  _336
REMARK  132  A    between atoms: _336  and  _337
REMARK  133  A    between atoms: _336  and  _339
REMARK  134  A    between atoms: _339  and  _340
REMARK  135  A    between atoms: _342  and  _344
REMARK  136  A    between atoms: _344  and  _345
REMARK  137  A    between atoms: _344  and  _347
REMARK  138  A    between atoms: _347  and  _348
REMARK  139  A    between atoms: _358  and  _360
REMARK  140  A    between atoms: _360  and  _361
REMARK  141  A    between atoms: _360  and  _363
REMARK  142  A    between atoms: _363  and  _364
REMARK  143  A    between atoms: _364  and  _365
REMARK  144  A    between atoms: _368  and  _370
REMARK  145  A    between atoms: _370  and  _371
REMARK  146  A    between atoms: _370  and  _373
REMARK  147  A    between atoms: _373  and  _374
REMARK  148  A    between atoms: _384  and  _386
REMARK  149  A    between atoms: _386  and  _387
REMARK  150  A    between atoms: _386  and  _389
REMARK  151  A    between atoms: _389  and  _390
REMARK  152  A    between atoms: _395  and  _397
REMARK  153  A    between atoms: _397  and  _398
REMARK  154  A    between atoms: _397  and  _400
REMARK  155  A    between atoms: _400  and  _401
REMARK  156  A    between atoms: _404  and  _406
REMARK  157  A    between atoms: _406  and  _407
REMARK  158  A    between atoms: _406  and  _409
REMARK  159  A    between atoms: _409  and  _410
REMARK  160  A    between atoms: _416  and  _418
REMARK  161  A    between atoms: _418  and  _419
REMARK  162  A    between atoms: _418  and  _421
REMARK  163  A    between atoms: _421  and  _422
REMARK  164  A    between atoms: _425  and  _427
REMARK  165  A    between atoms: _427  and  _428
REMARK  166  A    between atoms: _427  and  _430
REMARK  167  A    between atoms: _430  and  _431
REMARK  168  A    between atoms: _433  and  _435
REMARK  169  A    between atoms: _435  and  _436
REMARK  170  A    between atoms: _435  and  _438
REMARK  171  A    between atoms: _438  and  _439
REMARK  172  A    between atoms: _442  and  _444
REMARK  173  A    between atoms: _444  and  _445
REMARK  174  A    between atoms: _444  and  _447
REMARK  175  A    between atoms: _447  and  _448
REMARK  176  A    between atoms: _454  and  _456
REMARK  177  A    between atoms: _456  and  _457
REMARK  178  A    between atoms: _456  and  _459
REMARK  179  A    between atoms: _459  and  _460
REMARK  180  A    between atoms: _460  and  _461
REMARK  181  A    between atoms: _461  and  _462
REMARK  182  A    between atoms: _471  and  _473
REMARK  183  A    between atoms: _473  and  _474
REMARK  184  A    between atoms: _473  and  _476
REMARK  185  A    between atoms: _476  and  _477
REMARK  186  A    between atoms: _483  and  _485
REMARK  187  A    between atoms: _485  and  _486
REMARK  188  A    between atoms: _485  and  _488
REMARK  189  A    between atoms: _488  and  _489
REMARK  190  A    between atoms: _491  and  _493
REMARK  191  A    between atoms: _493  and  _494
REMARK  192  A    between atoms: _493  and  _496
REMARK  193  A    between atoms: _496  and  _497
REMARK  194  A    between atoms: _502  and  _504
REMARK  195  A    between atoms: _504  and  _505
REMARK  196  A    between atoms: _504  and  _507
REMARK  197  A    between atoms: _507  and  _508
REMARK  198  A    between atoms: _508  and  _509
REMARK  199  A    between atoms: _512  and  _514
REMARK  200  A    between atoms: _514  and  _515
REMARK  201  A    between atoms: _517  and  _519
REMARK  202  A    between atoms: _519  and  _520
REMARK  203  A    between atoms: _519  and  _522
REMARK  204  A    between atoms: _522  and  _523
REMARK  205  A    between atoms: _525  and  _527
REMARK  206  A    between atoms: _527  and  _528
REMARK  207  A    between atoms: _527  and  _530
REMARK  208  A    between atoms: _530  and  _531
REMARK  209  A    between atoms: _537  and  _539
REMARK  210  A    between atoms: _539  and  _540
REMARK  211  A    between atoms: _539  and  _542
REMARK  212  A    between atoms: _542  and  _543
REMARK  213  A    between atoms: _549  and  _551
REMARK  214  A    between atoms: _551  and  _552
REMARK  215  A    between atoms: _551  and  _554
REMARK  216  A    between atoms: _554  and  _555
REMARK  217  A    between atoms: _558  and  _560
REMARK  218  A    between atoms: _560  and  _561
REMARK  219  A    between atoms: _560  and  _563
REMARK  220  A    between atoms: _563  and  _564
REMARK  221  A    between atoms: _567  and  _569
REMARK  222  A    between atoms: _569  and  _570
REMARK  223  A    between atoms: _569  and  _572
REMARK  224  A    between atoms: _572  and  _573
REMARK  225  A    between atoms: _578  and  _579
REMARK  226  A    between atoms: _581  and  _583
REMARK  227  A    between atoms: _583  and  _584
REMARK  228  A    between atoms: _586  and  _588
REMARK  229  A    between atoms: _588  and  _589
REMARK  230  A    between atoms: _592  and  _594
REMARK  231  A    between atoms: _594  and  _595
REMARK  232  A    between atoms: _594  and  _597
REMARK  233  A    between atoms: _597  and  _598
REMARK  234  A    between atoms: _601  and  _603
REMARK  235  A    between atoms: _603  and  _604
REMARK  236  A    between atoms: _603  and  _606
REMARK  237  A    between atoms: _606  and  _607
REMARK  238  A    between atoms: _609  and  _611
REMARK  239  A    between atoms: _611  and  _612
REMARK  240  A    between atoms: _611  and  _614
REMARK  241  A    between atoms: _617  and  _619
REMARK  242  A    between atoms: _619  and  _620
REMARK  243  A    between atoms: _619  and  _622
REMARK  244  A    between atoms: _622  and  _623
REMARK  245  A    between atoms: _628  and  _630
REMARK  246  A    between atoms: _630  and  _631
REMARK  247  A    between atoms: _630  and  _633
REMARK  248  A    between atoms: _633  and  _634
REMARK  249  A    between atoms: _644  and  _646
REMARK  250  A    between atoms: _646  and  _647
REMARK  251  A    between atoms: _646  and  _649
REMARK  252  A    between atoms: _649  and  _650
REMARK  253  A    between atoms: _650  and  _651
REMARK  254  A    between atoms: _653  and  _655
REMARK  255  A    between atoms: _655  and  _656
REMARK  256  A    between atoms: _655  and  _658
REMARK  257  A    between atoms: _658  and  _659
REMARK  258  A    between atoms: _662  and  _664
REMARK  259  A    between atoms: _664  and  _665
REMARK  260  A    between atoms: _664  and  _667
REMARK  261  A    between atoms: _667  and  _668
REMARK  262  A    between atoms: _673  and  _675
REMARK  263  A    between atoms: _675  and  _676
REMARK  264  A    between atoms: _678  and  _680
REMARK  265  A    between atoms: _680  and  _681
REMARK  266  A    between atoms: _680  and  _683
REMARK  267  A    between atoms: _683  and  _684
REMARK  268  A    between atoms: _689  and  _690
REMARK  269  A    between atoms: _692  and  _694
REMARK  270  A    between atoms: _694  and  _695
REMARK  271  A    between atoms: _694  and  _697
REMARK  272  A    between atoms: _697  and  _698
REMARK  273  A    between atoms: _698  and  _699
REMARK  274  A    between atoms: _702  and  _704
REMARK  275  A    between atoms: _704  and  _705
REMARK  276  A    between atoms: _704  and  _707
REMARK  277  A    between atoms: _707  and  _708
REMARK                            x       y       z     vdW  Elec       q    Type
REMARK                         _______ _______ _______ _____ _____    ______ ____
ROOT
ATOM      1  O   HOH     1       4.258  62.552  64.020  0.00  0.00    +0.000 OA
ENDROOT
TORSDOF 0
REMARK  Name = ../refined-set-2016/1h22/1h22_pocket.pdb
REMARK  277 active torsions:
REMARK  status: ('A' for Active; 'I' for Inactive)
REMARK    1  A    between atoms: _1  and  _3
REMARK    2  A    between atoms: _3  and  _4
REMARK    3  A    between atoms: _3  and  _6
REMARK    4  A    between atoms: _6  and  _7
REMARK    5  A    between atoms: _7  and  _8
REMARK    6  A    between atoms: _13  and  _15
REMARK    7  A    between atoms: _15  and  _16
REMARK    8  A    between atoms: _15  and  _18
REMARK    9  A    between atoms: _18  and  _19
REMARK   10  A    between atoms: _24  and  _25
REMARK   11  A    between atoms: _27  and  _29
REMARK   12  A    between atoms: _29  and  _30
REMARK   13  A    between atoms: _29  and  _32
REMARK   14  A    between atoms: _35  and  _37
REMARK   15  A    between atoms: _37  and  _38
REMARK   16  A    between atoms: _37  and  _40
REMARK   17  A    between atoms: _40  and  _41
REMARK   18  A    between atoms: _44  and  _46
REMARK   19  A    between atoms: _46  and  _47
REMARK   20  A    between atoms: _46  and  _49
REMARK   21  A    between atoms: _49  and  _50
REMARK   22  A    between atoms: _50  and  _51
REMARK   23  A    between atoms: _54  and  _56
REMARK   24  A    between atoms: _56  and  _57
REMARK   25  A    between atoms: _56  and  _59
REMARK   26  A    between atoms: _59  and  _60
REMARK   27  A    between atoms: _60  and  _61
REMARK   28  A    between atoms: _66  and  _68
REMARK   29  A    between atoms: _68  and  _69
REMARK   30  A    between atoms: _68  and  _71
REMARK   31  A    between atoms: _71  and  _72
REMARK   32  A    between atoms: _78  and  _80
REMARK   33  A    between atoms: _80  and  _81
REMARK   34  A    between atoms: _83  and  _85
REMARK   35  A    between atoms: _85  and  _86
REMARK   36  A    between atoms: _85  and  _88
REMARK   37  A    between atoms: _88  and  _89
REMARK   38  A    between atoms: _91  and  _93
REMARK   39  A    between atoms: _93  and  _94
REMARK   40  A    between atoms: _93  and  _96
REMARK   41  A    between atoms: _96  and  _97
REMARK   42  A    between atoms: _97  and  _98
REMARK   43  A    between atoms: _100  and  _102
REMARK   44  A    between atoms: _102  and  _103
REMARK   45  A    between atoms: _102  and  _105
REMARK   46  A    between atoms: _105  and  _106
REMARK   47  A    between atoms: _116  and  _118
REMARK   48  A    between atoms: _118  and  _119
REMARK   49  A    between atoms: _118  and  _121
REMARK   50  A    between atoms: _121  and  _122
REMARK   51  A    between atoms: _128  and  _129
REMARK   52  A    between atoms: _134  and  _136
REMARK   53  A    between atoms: _136  and  _137
REMARK   54  A    between atoms: _136  and  _139
REMARK   55  A    between atoms: _139  and  _140
REMARK   56  A    between atoms: _150  and  _152
REMARK   57  A    between atoms: _152  and  _153
REMARK   58  A    between atoms: _152  and  _155
REMARK   59  A    between atoms: _155  and  _156
REMARK   60  A    between atoms: _159  and  _161
REMARK   61  A    between atoms: _161  and  _162
REMARK   62  A    between atoms: _161  and  _164
REMARK   63  A    between atoms: _164  and  _165
REMARK   64  A    between atoms: _170  and  _171
REMARK   65  A    between atoms: _173  and  _175
REMARK   66  A    between atoms: _175  and  _176
REMARK   67  A    between atoms: _178  and  _180
REMARK   68  A    between atoms: _180  and  _181
REMARK   69  A    between atoms: _183  and  _185
REMARK   70  A    between atoms: _185  and  _186
REMARK   71  A    between atoms: _188  and  _190
REMARK   72  A    between atoms: _190  and  _191
REMARK   73  A    between atoms: _190  and  _193
REMARK   74  A    between atoms: _193  and  _194
REMARK   75  A    between atoms: _200  and  _202
REMARK   76  A    between atoms: _202  and  _203
REMARK   77  A    between atoms: _202  and  _205
REMARK   78  A    between atoms: _205  and  _206
REMARK   79  A    between atoms: _211  and  _212
REMARK   80  A    between atoms: _214  and  _216
REMARK   81  A    between atoms: _216  and  _217
REMARK   82  A    between atoms: _216  and  _219
REMARK   83  A    between atoms: _219  and  _220
REMARK   84  A    between atoms: _222  and  _224
REMARK   85  A    between atoms: _224  and  _225
REMARK   86  A    between atoms: _227  and  _229
REMARK   87  A    between atoms: _229  and  _230
REMARK   88  A    between atoms: _229  and  _232
REMARK   89  A    between atoms: _232  and  _233
REMARK   90  A    between atoms: _235  and  _237
REMARK   91  A    between atoms: _237  and  _238
REMARK   92  A    between atoms: _237  and  _240
REMARK   93  A    between atoms: _240  and  _241
REMARK   94  A    between atoms: _243  and  _245
REMARK   95  A    between atoms: _245  and  _246
REMARK   96  A    between atoms: _245  and  _248
REMARK   97  A    between atoms: _248  and  _249
REMARK   98  A    between atoms: _252  and  _254
REMARK   99  A    between atoms: _254  and  _255
REMARK  100  A    between atoms: _254  and  _257
REMARK  101  A    between atoms: _257  and  _258
REMARK  102  A    between atoms: _261  and  _263
REMARK  103  A    between atoms: _263  and  _264
REMARK  104  A    between atoms: _263  and  _266
REMARK  105  A    between atoms: _269  and  _271
REMARK  106  A    between atoms: _271  and  _272
REMARK  107  A    between atoms: _271  and  _274
REMARK  108  A    between atoms: _274  and  _275
REMARK  109  A    between atoms: _280  and  _281
REMARK  110  A    between atoms: _283  and  _285
REMARK  111  A    between atoms: _285  and  _286
REMARK  112  A    between atoms: _285  and  _288
REMARK  113  A    between atoms: _288  and  _289
REMARK  114  A    between atoms: _294  and  _295
REMARK  115  A    between atoms: _297  and  _299
REMARK  116  A    between atoms: _299  and  _300
REMARK  117  A    between atoms: _299  and  _302
REMARK  118  A    between atoms: _305  and  _307
REMARK  119  A    between atoms: _307  and  _308
REMARK  120  A    between atoms: _307  and  _310
REMARK  121  A    between atoms: _310  and  _311
REMARK  122  A    between atoms: _311  and  _312
REMARK  123  A    between atoms: _315  and  _317
REMARK  124  A    between atoms: _317  and  _318
REMARK  125  A    between atoms: _317  and  _320
REMARK  126  A    between atoms: _320  and  _321
REMARK  127  A    between atoms: _323  and  _325
REMARK  128  A    between atoms: _325  and  _326
REMARK  129  A    between atoms: _329  and  _331
REMARK  130  A    between atoms: _331  and  _332
REMARK  131  A    between atoms: _334  and  _336
REMARK  132  A    between atoms: _336  and  _337
REMARK  133  A    between atoms: _336  and  _339
REMARK  134  A    between atoms: _339  and  _340
REMARK  135  A    between atoms: _342  and  _344
REMARK  136  A    between atoms: _344  and  _345
REMARK  137  A    between atoms: _344  and  _347
REMARK  138  A    between atoms: _347  and  _348
REMARK  139  A    between atoms: _358  and  _360
REMARK  140  A    between atoms: _360  and  _361
REMARK  141  A    between atoms: _360  and  _363
REMARK  142  A    between atoms: _363  and  _364
REMARK  143  A    between atoms: _364  and  _365
REMARK  144  A    between atoms: _368  and  _370
REMARK  145  A    between atoms: _370  and  _371
REMARK  146  A    between atoms: _370  and  _373
REMARK  147  A    between atoms: _373  and  _374
REMARK  148  A    between atoms: _384  and  _386
REMARK  149  A    between atoms: _386  and  _387
REMARK  150  A    between atoms: _386  and  _389
REMARK  151  A    between atoms: _389  and  _390
REMARK  152  A    between atoms: _395  and  _397
REMARK  153  A    between atoms: _397  and  _398
REMARK  154  A    between atoms: _397  and  _400
REMARK  155  A    between atoms: _400  and  _401
REMARK  156  A    between atoms: _404  and  _406
REMARK  157  A    between atoms: _406  and  _407
REMARK  158  A    between atoms: _406  and  _409
REMARK  159  A    between atoms: _409  and  _410
REMARK  160  A    between atoms: _416  and  _418
REMARK  161  A    between atoms: _418  and  _419
REMARK  162  A    between atoms: _418  and  _421
REMARK  163  A    between atoms: _421  and  _422
REMARK  164  A    between atoms: _425  and  _427
REMARK  165  A    between atoms: _427  and  _428
REMARK  166  A    between atoms: _427  and  _430
REMARK  167  A    between atoms: _430  and  _431
REMARK  168  A    between atoms: _433  and  _435
REMARK  169  A    between atoms: _435  and  _436
REMARK  170  A    between atoms: _435  and  _438
REMARK  171  A    between atoms: _438  and  _439
REMARK  172  A    between atoms: _442  and  _444
REMARK  173  A    between atoms: _444  and  _445
REMARK  174  A    between atoms: _444  and  _447
REMARK  175  A    between atoms: _447  and  _448
REMARK  176  A    between atoms: _454  and  _456
REMARK  177  A    between atoms: _456  and  _457
REMARK  178  A    between atoms: _456  and  _459
REMARK  179  A    between atoms: _459  and  _460
REMARK  180  A    between atoms: _460  and  _461
REMARK  181  A    between atoms: _461  and  _462
REMARK  182  A    between atoms: _471  and  _473
REMARK  183  A    between atoms: _473  and  _474
REMARK  184  A    between atoms: _473  and  _476
REMARK  185  A    between atoms: _476  and  _477
REMARK  186  A    between atoms: _483  and  _485
REMARK  187  A    between atoms: _485  and  _486
REMARK  188  A    between atoms: _485  and  _488
REMARK  189  A    between atoms: _488  and  _489
REMARK  190  A    between atoms: _491  and  _493
REMARK  191  A    between atoms: _493  and  _494
REMARK  192  A    between atoms: _493  and  _496
REMARK  193  A    between atoms: _496  and  _497
REMARK  194  A    between atoms: _502  and  _504
REMARK  195  A    between atoms: _504  and  _505
REMARK  196  A    between atoms: _504  and  _507
REMARK  197  A    between atoms: _507  and  _508
REMARK  198  A    between atoms: _508  and  _509
REMARK  199  A    between atoms: _512  and  _514
REMARK  200  A    between atoms: _514  and  _515
REMARK  201  A    between atoms: _517  and  _519
REMARK  202  A    between atoms: _519  and  _520
REMARK  203  A    between atoms: _519  and  _522
REMARK  204  A    between atoms: _522  and  _523
REMARK  205  A    between atoms: _525  and  _527
REMARK  206  A    between atoms: _527  and  _528
REMARK  207  A    between atoms: _527  and  _530
REMARK  208  A    between atoms: _530  and  _531
REMARK  209  A    between atoms: _537  and  _539
REMARK  210  A    between atoms: _539  and  _540
REMARK  211  A    between atoms: _539  and  _542
REMARK  212  A    between atoms: _542  and  _543
REMARK  213  A    between atoms: _549  and  _551
REMARK  214  A    between atoms: _551  and  _552
REMARK  215  A    between atoms: _551  and  _554
REMARK  216  A    between atoms: _554  and  _555
REMARK  217  A    between atoms: _558  and  _560
REMARK  218  A    between atoms: _560  and  _561
REMARK  219  A    between atoms: _560  and  _563
REMARK  220  A    between atoms: _563  and  _564
REMARK  221  A    between atoms: _567  and  _569
REMARK  222  A    between atoms: _569  and  _570
REMARK  223  A    between atoms: _569  and  _572
REMARK  224  A    between atoms: _572  and  _573
REMARK  225  A    between atoms: _578  and  _579
REMARK  226  A    between atoms: _581  and  _583
REMARK  227  A    between atoms: _583  and  _584
REMARK  228  A    between atoms: _586  and  _588
REMARK  229  A    between atoms: _588  and  _589
REMARK  230  A    between atoms: _592  and  _594
REMARK  231  A    between atoms: _594  and  _595
REMARK  232  A    between atoms: _594  and  _597
REMARK  233  A    between atoms: _597  and  _598
REMARK  234  A    between atoms: _601  and  _603
REMARK  235  A    between atoms: _603  and  _604
REMARK  236  A    between atoms: _603  and  _606
REMARK  237  A    between atoms: _606  and  _607
REMARK  238  A    between atoms: _609  and  _611
REMARK  239  A    between atoms: _611  and  _612
REMARK  240  A    between atoms: _611  and  _614
REMARK  241  A    between atoms: _617  and  _619
REMARK  242  A    between atoms: _619  and  _620
REMARK  243  A    between atoms: _619  and  _622
REMARK  244  A    between atoms: _622  and  _623
REMARK  245  A    between atoms: _628  and  _630
REMARK  246  A    between atoms: _630  and  _631
REMARK  247  A    between atoms: _630  and  _633
REMARK  248  A    between atoms: _633  and  _634
REMARK  249  A    between atoms: _644  and  _646
REMARK  250  A    between atoms: _646  and  _647
REMARK  251  A    between atoms: _646  and  _649
REMARK  252  A    between atoms: _649  and  _650
REMARK  253  A    between atoms: _650  and  _651
REMARK  254  A    between atoms: _653  and  _655
REMARK  255  A    between atoms: _655  and  _656
REMARK  256  A    between atoms: _655  and  _658
REMARK  257  A    between atoms: _658  and  _659
REMARK  258  A    between atoms: _662  and  _664
REMARK  259  A    between atoms: _664  and  _665
REMARK  260  A    between atoms: _664  and  _667
REMARK  261  A    between atoms: _667  and  _668
REMARK  262  A    between atoms: _673  and  _675
REMARK  263  A    between atoms: _675  and  _676
REMARK  264  A    between atoms: _678  and  _680
REMARK  265  A    between atoms: _680  and  _681
REMARK  266  A    between atoms: _680  and  _683
REMARK  267  A    between atoms: _683  and  _684
REMARK  268  A    between atoms: _689  and  _690
REMARK  269  A    between atoms: _692  and  _694
REMARK  270  A    between atoms: _694  and  _695
REMARK  271  A    between atoms: _694  and  _697
REMARK  272  A    between atoms: _697  and  _698
REMARK  273  A    between atoms: _698  and  _699
REMARK  274  A    between atoms: _702  and  _704
REMARK  275  A    between atoms: _704  and  _705
REMARK  276  A    between atoms: _704  and  _707
REMARK  277  A    between atoms: _707  and  _708
REMARK                            x       y       z     vdW  Elec       q    Type
REMARK                         _______ _______ _______ _____ _____    ______ ____
ROOT
ATOM      1  O   HOH     1      -0.748  62.952  59.011  0.00  0.00    +0.000 OA
ENDROOT
TORSDOF 0
REMARK  Name = ../refined-set-2016/1h22/1h22_pocket.pdb
REMARK  277 active torsions:
REMARK  status: ('A' for Active; 'I' for Inactive)
REMARK    1  A    between atoms: _1  and  _3
REMARK    2  A    between atoms: _3  and  _4
REMARK    3  A    between atoms: _3  and  _6
REMARK    4  A    between atoms: _6  and  _7
REMARK    5  A    between atoms: _7  and  _8
REMARK    6  A    between atoms: _13  and  _15
REMARK    7  A    between atoms: _15  and  _16
REMARK    8  A    between atoms: _15  and  _18
REMARK    9  A    between atoms: _18  and  _19
REMARK   10  A    between atoms: _24  and  _25
REMARK   11  A    between atoms: _27  and  _29
REMARK   12  A    between atoms: _29  and  _30
REMARK   13  A    between atoms: _29  and  _32
REMARK   14  A    between atoms: _35  and  _37
REMARK   15  A    between atoms: _37  and  _38
REMARK   16  A    between atoms: _37  and  _40
REMARK   17  A    between atoms: _40  and  _41
REMARK   18  A    between atoms: _44  and  _46
REMARK   19  A    between atoms: _46  and  _47
REMARK   20  A    between atoms: _46  and  _49
REMARK   21  A    between atoms: _49  and  _50
REMARK   22  A    between atoms: _50  and  _51
REMARK   23  A    between atoms: _54  and  _56
REMARK   24  A    between atoms: _56  and  _57
REMARK   25  A    between atoms: _56  and  _59
REMARK   26  A    between atoms: _59  and  _60
REMARK   27  A    between atoms: _60  and  _61
REMARK   28  A    between atoms: _66  and  _68
REMARK   29  A    between atoms: _68  and  _69
REMARK   30  A    between atoms: _68  and  _71
REMARK   31  A    between atoms: _71  and  _72
REMARK   32  A    between atoms: _78  and  _80
REMARK   33  A    between atoms: _80  and  _81
REMARK   34  A    between atoms: _83  and  _85
REMARK   35  A    between atoms: _85  and  _86
REMARK   36  A    between atoms: _85  and  _88
REMARK   37  A    between atoms: _88  and  _89
REMARK   38  A    between atoms: _91  and  _93
REMARK   39  A    between atoms: _93  and  _94
REMARK   40  A    between atoms: _93  and  _96
REMARK   41  A    between atoms: _96  and  _97
REMARK   42  A    between atoms: _97  and  _98
REMARK   43  A    between atoms: _100  and  _102
REMARK   44  A    between atoms: _102  and  _103
REMARK   45  A    between atoms: _102  and  _105
REMARK   46  A    between atoms: _105  and  _106
REMARK   47  A    between atoms: _116  and  _118
REMARK   48  A    between atoms: _118  and  _119
REMARK   49  A    between atoms: _118  and  _121
REMARK   50  A    between atoms: _121  and  _122
REMARK   51  A    between atoms: _128  and  _129
REMARK   52  A    between atoms: _134  and  _136
REMARK   53  A    between atoms: _136  and  _137
REMARK   54  A    between atoms: _136  and  _139
REMARK   55  A    between atoms: _139  and  _140
REMARK   56  A    between atoms: _150  and  _152
REMARK   57  A    between atoms: _152  and  _153
REMARK   58  A    between atoms: _152  and  _155
REMARK   59  A    between atoms: _155  and  _156
REMARK   60  A    between atoms: _159  and  _161
REMARK   61  A    between atoms: _161  and  _162
REMARK   62  A    between atoms: _161  and  _164
REMARK   63  A    between atoms: _164  and  _165
REMARK   64  A    between atoms: _170  and  _171
REMARK   65  A    between atoms: _173  and  _175
REMARK   66  A    between atoms: _175  and  _176
REMARK   67  A    between atoms: _178  and  _180
REMARK   68  A    between atoms: _180  and  _181
REMARK   69  A    between atoms: _183  and  _185
REMARK   70  A    between atoms: _185  and  _186
REMARK   71  A    between atoms: _188  and  _190
REMARK   72  A    between atoms: _190  and  _191
REMARK   73  A    between atoms: _190  and  _193
REMARK   74  A    between atoms: _193  and  _194
REMARK   75  A    between atoms: _200  and  _202
REMARK   76  A    between atoms: _202  and  _203
REMARK   77  A    between atoms: _202  and  _205
REMARK   78  A    between atoms: _205  and  _206
REMARK   79  A    between atoms: _211  and  _212
REMARK   80  A    between atoms: _214  and  _216
REMARK   81  A    between atoms: _216  and  _217
REMARK   82  A    between atoms: _216  and  _219
REMARK   83  A    between atoms: _219  and  _220
REMARK   84  A    between atoms: _222  and  _224
REMARK   85  A    between atoms: _224  and  _225
REMARK   86  A    between atoms: _227  and  _229
REMARK   87  A    between atoms: _229  and  _230
REMARK   88  A    between atoms: _229  and  _232
REMARK   89  A    between atoms: _232  and  _233
REMARK   90  A    between atoms: _235  and  _237
REMARK   91  A    between atoms: _237  and  _238
REMARK   92  A    between atoms: _237  and  _240
REMARK   93  A    between atoms: _240  and  _241
REMARK   94  A    between atoms: _243  and  _245
REMARK   95  A    between atoms: _245  and  _246
REMARK   96  A    between atoms: _245  and  _248
REMARK   97  A    between atoms: _248  and  _249
REMARK   98  A    between atoms: _252  and  _254
REMARK   99  A    between atoms: _254  and  _255
REMARK  100  A    between atoms: _254  and  _257
REMARK  101  A    between atoms: _257  and  _258
REMARK  102  A    between atoms: _261  and  _263
REMARK  103  A    between atoms: _263  and  _264
REMARK  104  A    between atoms: _263  and  _266
REMARK  105  A    between atoms: _269  and  _271
REMARK  106  A    between atoms: _271  and  _272
REMARK  107  A    between atoms: _271  and  _274
REMARK  108  A    between atoms: _274  and  _275
REMARK  109  A    between atoms: _280  and  _281
REMARK  110  A    between atoms: _283  and  _285
REMARK  111  A    between atoms: _285  and  _286
REMARK  112  A    between atoms: _285  and  _288
REMARK  113  A    between atoms: _288  and  _289
REMARK  114  A    between atoms: _294  and  _295
REMARK  115  A    between atoms: _297  and  _299
REMARK  116  A    between atoms: _299  and  _300
REMARK  117  A    between atoms: _299  and  _302
REMARK  118  A    between atoms: _305  and  _307
REMARK  119  A    between atoms: _307  and  _308
REMARK  120  A    between atoms: _307  and  _310
REMARK  121  A    between atoms: _310  and  _311
REMARK  122  A    between atoms: _311  and  _312
REMARK  123  A    between atoms: _315  and  _317
REMARK  124  A    between atoms: _317  and  _318
REMARK  125  A    between atoms: _317  and  _320
REMARK  126  A    between atoms: _320  and  _321
REMARK  127  A    between atoms: _323  and  _325
REMARK  128  A    between atoms: _325  and  _326
REMARK  129  A    between atoms: _329  and  _331
REMARK  130  A    between atoms: _331  and  _332
REMARK  131  A    between atoms: _334  and  _336
REMARK  132  A    between atoms: _336  and  _337
REMARK  133  A    between atoms: _336  and  _339
REMARK  134  A    between atoms: _339  and  _340
REMARK  135  A    between atoms: _342  and  _344
REMARK  136  A    between atoms: _344  and  _345
REMARK  137  A    between atoms: _344  and  _347
REMARK  138  A    between atoms: _347  and  _348
REMARK  139  A    between atoms: _358  and  _360
REMARK  140  A    between atoms: _360  and  _361
REMARK  141  A    between atoms: _360  and  _363
REMARK  142  A    between atoms: _363  and  _364
REMARK  143  A    between atoms: _364  and  _365
REMARK  144  A    between atoms: _368  and  _370
REMARK  145  A    between atoms: _370  and  _371
REMARK  146  A    between atoms: _370  and  _373
REMARK  147  A    between atoms: _373  and  _374
REMARK  148  A    between atoms: _384  and  _386
REMARK  149  A    between atoms: _386  and  _387
REMARK  150  A    between atoms: _386  and  _389
REMARK  151  A    between atoms: _389  and  _390
REMARK  152  A    between atoms: _395  and  _397
REMARK  153  A    between atoms: _397  and  _398
REMARK  154  A    between atoms: _397  and  _400
REMARK  155  A    between atoms: _400  and  _401
REMARK  156  A    between atoms: _404  and  _406
REMARK  157  A    between atoms: _406  and  _407
REMARK  158  A    between atoms: _406  and  _409
REMARK  159  A    between atoms: _409  and  _410
REMARK  160  A    between atoms: _416  and  _418
REMARK  161  A    between atoms: _418  and  _419
REMARK  162  A    between atoms: _418  and  _421
REMARK  163  A    between atoms: _421  and  _422
REMARK  164  A    between atoms: _425  and  _427
REMARK  165  A    between atoms: _427  and  _428
REMARK  166  A    between atoms: _427  and  _430
REMARK  167  A    between atoms: _430  and  _431
REMARK  168  A    between atoms: _433  and  _435
REMARK  169  A    between atoms: _435  and  _436
REMARK  170  A    between atoms: _435  and  _438
REMARK  171  A    between atoms: _438  and  _439
REMARK  172  A    between atoms: _442  and  _444
REMARK  173  A    between atoms: _444  and  _445
REMARK  174  A    between atoms: _444  and  _447
REMARK  175  A    between atoms: _447  and  _448
REMARK  176  A    between atoms: _454  and  _456
REMARK  177  A    between atoms: _456  and  _457
REMARK  178  A    between atoms: _456  and  _459
REMARK  179  A    between atoms: _459  and  _460
REMARK  180  A    between atoms: _460  and  _461
REMARK  181  A    between atoms: _461  and  _462
REMARK  182  A    between atoms: _471  and  _473
REMARK  183  A    between atoms: _473  and  _474
REMARK  184  A    between atoms: _473  and  _476
REMARK  185  A    between atoms: _476  and  _477
REMARK  186  A    between atoms: _483  and  _485
REMARK  187  A    between atoms: _485  and  _486
REMARK  188  A    between atoms: _485  and  _488
REMARK  189  A    between atoms: _488  and  _489
REMARK  190  A    between atoms: _491  and  _493
REMARK  191  A    between atoms: _493  and  _494
REMARK  192  A    between atoms: _493  and  _496
REMARK  193  A    between atoms: _496  and  _497
REMARK  194  A    between atoms: _502  and  _504
REMARK  195  A    between atoms: _504  and  _505
REMARK  196  A    between atoms: _504  and  _507
REMARK  197  A    between atoms: _507  and  _508
REMARK  198  A    between atoms: _508  and  _509
REMARK  199  A    between atoms: _512  and  _514
REMARK  200  A    between atoms: _514  and  _515
REMARK  201  A    between atoms: _517  and  _519
REMARK  202  A    between atoms: _519  and  _520
REMARK  203  A    between atoms: _519  and  _522
REMARK  204  A    between atoms: _522  and  _523
REMARK  205  A    between atoms: _525  and  _527
REMARK  206  A    between atoms: _527  and  _528
REMARK  207  A    between atoms: _527  and  _530
REMARK  208  A    between atoms: _530  and  _531
REMARK  209  A    between atoms: _537  and  _539
REMARK  210  A    between atoms: _539  and  _540
REMARK  211  A    between atoms: _539  and  _542
REMARK  212  A    between atoms: _542  and  _543
REMARK  213  A    between atoms: _549  and  _551
REMARK  214  A    between atoms: _551  and  _552
REMARK  215  A    between atoms: _551  and  _554
REMARK  216  A    between atoms: _554  and  _555
REMARK  217  A    between atoms: _558  and  _560
REMARK  218  A    between atoms: _560  and  _561
REMARK  219  A    between atoms: _560  and  _563
REMARK  220  A    between atoms: _563  and  _564
REMARK  221  A    between atoms: _567  and  _569
REMARK  222  A    between atoms: _569  and  _570
REMARK  223  A    between atoms: _569  and  _572
REMARK  224  A    between atoms: _572  and  _573
REMARK  225  A    between atoms: _578  and  _579
REMARK  226  A    between atoms: _581  and  _583
REMARK  227  A    between atoms: _583  and  _584
REMARK  228  A    between atoms: _586  and  _588
REMARK  229  A    between atoms: _588  and  _589
REMARK  230  A    between atoms: _592  and  _594
REMARK  231  A    between atoms: _594  and  _595
REMARK  232  A    between atoms: _594  and  _597
REMARK  233  A    between atoms: _597  and  _598
REMARK  234  A    between atoms: _601  and  _603
REMARK  235  A    between atoms: _603  and  _604
REMARK  236  A    between atoms: _603  and  _606
REMARK  237  A    between atoms: _606  and  _607
REMARK  238  A    between atoms: _609  and  _611
REMARK  239  A    between atoms: _611  and  _612
REMARK  240  A    between atoms: _611  and  _614
REMARK  241  A    between atoms: _617  and  _619
REMARK  242  A    between atoms: _619  and  _620
REMARK  243  A    between atoms: _619  and  _622
REMARK  244  A    between atoms: _622  and  _623
REMARK  245  A    between atoms: _628  and  _630
REMARK  246  A    between atoms: _630  and  _631
REMARK  247  A    between atoms: _630  and  _633
REMARK  248  A    between atoms: _633  and  _634
REMARK  249  A    between atoms: _644  and  _646
REMARK  250  A    between atoms: _646  and  _647
REMARK  251  A    between atoms: _646  and  _649
REMARK  252  A    between atoms: _649  and  _650
REMARK  253  A    between atoms: _650  and  _651
REMARK  254  A    between atoms: _653  and  _655
REMARK  255  A    between atoms: _655  and  _656
REMARK  256  A    between atoms: _655  and  _658
REMARK  257  A    between atoms: _658  and  _659
REMARK  258  A    between atoms: _662  and  _664
REMARK  259  A    between atoms: _664  and  _665
REMARK  260  A    between atoms: _664  and  _667
REMARK  261  A    between atoms: _667  and  _668
REMARK  262  A    between atoms: _673  and  _675
REMARK  263  A    between atoms: _675  and  _676
REMARK  264  A    between atoms: _678  and  _680
REMARK  265  A    between atoms: _680  and  _681
REMARK  266  A    between atoms: _680  and  _683
REMARK  267  A    between atoms: _683  and  _684
REMARK  268  A    between atoms: _689  and  _690
REMARK  269  A    between atoms: _692  and  _694
REMARK  270  A    between atoms: _694  and  _695
REMARK  271  A    between atoms: _694  and  _697
REMARK  272  A    between atoms: _697  and  _698
REMARK  273  A    between atoms: _698  and  _699
REMARK  274  A    between atoms: _702  and  _704
REMARK  275  A    between atoms: _704  and  _705
REMARK  276  A    between atoms: _704  and  _707
REMARK  277  A    between atoms: _707  and  _708
REMARK                            x       y       z     vdW  Elec       q    Type
REMARK                         _______ _______ _______ _____ _____    ______ ____
ROOT
ATOM      1  O   HOH     1      -0.689  65.735  68.249  0.00  0.00    +0.000 OA
ENDROOT
TORSDOF 0
REMARK  Name = ../refined-set-2016/1h22/1h22_pocket.pdb
REMARK  277 active torsions:
REMARK  status: ('A' for Active; 'I' for Inactive)
REMARK    1  A    between atoms: _1  and  _3
REMARK    2  A    between atoms: _3  and  _4
REMARK    3  A    between atoms: _3  and  _6
REMARK    4  A    between atoms: _6  and  _7
REMARK    5  A    between atoms: _7  and  _8
REMARK    6  A    between atoms: _13  and  _15
REMARK    7  A    between atoms: _15  and  _16
REMARK    8  A    between atoms: _15  and  _18
REMARK    9  A    between atoms: _18  and  _19
REMARK   10  A    between atoms: _24  and  _25
REMARK   11  A    between atoms: _27  and  _29
REMARK   12  A    between atoms: _29  and  _30
REMARK   13  A    between atoms: _29  and  _32
REMARK   14  A    between atoms: _35  and  _37
REMARK   15  A    between atoms: _37  and  _38
REMARK   16  A    between atoms: _37  and  _40
REMARK   17  A    between atoms: _40  and  _41
REMARK   18  A    between atoms: _44  and  _46
REMARK   19  A    between atoms: _46  and  _47
REMARK   20  A    between atoms: _46  and  _49
REMARK   21  A    between atoms: _49  and  _50
REMARK   22  A    between atoms: _50  and  _51
REMARK   23  A    between atoms: _54  and  _56
REMARK   24  A    between atoms: _56  and  _57
REMARK   25  A    between atoms: _56  and  _59
REMARK   26  A    between atoms: _59  and  _60
REMARK   27  A    between atoms: _60  and  _61
REMARK   28  A    between atoms: _66  and  _68
REMARK   29  A    between atoms: _68  and  _69
REMARK   30  A    between atoms: _68  and  _71
REMARK   31  A    between atoms: _71  and  _72
REMARK   32  A    between atoms: _78  and  _80
REMARK   33  A    between atoms: _80  and  _81
REMARK   34  A    between atoms: _83  and  _85
REMARK   35  A    between atoms: _85  and  _86
REMARK   36  A    between atoms: _85  and  _88
REMARK   37  A    between atoms: _88  and  _89
REMARK   38  A    between atoms: _91  and  _93
REMARK   39  A    between atoms: _93  and  _94
REMARK   40  A    between atoms: _93  and  _96
REMARK   41  A    between atoms: _96  and  _97
REMARK   42  A    between atoms: _97  and  _98
REMARK   43  A    between atoms: _100  and  _102
REMARK   44  A    between atoms: _102  and  _103
REMARK   45  A    between atoms: _102  and  _105
REMARK   46  A    between atoms: _105  and  _106
REMARK   47  A    between atoms: _116  and  _118
REMARK   48  A    between atoms: _118  and  _119
REMARK   49  A    between atoms: _118  and  _121
REMARK   50  A    between atoms: _121  and  _122
REMARK   51  A    between atoms: _128  and  _129
REMARK   52  A    between atoms: _134  and  _136
REMARK   53  A    between atoms: _136  and  _137
REMARK   54  A    between atoms: _136  and  _139
REMARK   55  A    between atoms: _139  and  _140
REMARK   56  A    between atoms: _150  and  _152
REMARK   57  A    between atoms: _152  and  _153
REMARK   58  A    between atoms: _152  and  _155
REMARK   59  A    between atoms: _155  and  _156
REMARK   60  A    between atoms: _159  and  _161
REMARK   61  A    between atoms: _161  and  _162
REMARK   62  A    between atoms: _161  and  _164
REMARK   63  A    between atoms: _164  and  _165
REMARK   64  A    between atoms: _170  and  _171
REMARK   65  A    between atoms: _173  and  _175
REMARK   66  A    between atoms: _175  and  _176
REMARK   67  A    between atoms: _178  and  _180
REMARK   68  A    between atoms: _180  and  _181
REMARK   69  A    between atoms: _183  and  _185
REMARK   70  A    between atoms: _185  and  _186
REMARK   71  A    between atoms: _188  and  _190
REMARK   72  A    between atoms: _190  and  _191
REMARK   73  A    between atoms: _190  and  _193
REMARK   74  A    between atoms: _193  and  _194
REMARK   75  A    between atoms: _200  and  _202
REMARK   76  A    between atoms: _202  and  _203
REMARK   77  A    between atoms: _202  and  _205
REMARK   78  A    between atoms: _205  and  _206
REMARK   79  A    between atoms: _211  and  _212
REMARK   80  A    between atoms: _214  and  _216
REMARK   81  A    between atoms: _216  and  _217
REMARK   82  A    between atoms: _216  and  _219
REMARK   83  A    between atoms: _219  and  _220
REMARK   84  A    between atoms: _222  and  _224
REMARK   85  A    between atoms: _224  and  _225
REMARK   86  A    between atoms: _227  and  _229
REMARK   87  A    between atoms: _229  and  _230
REMARK   88  A    between atoms: _229  and  _232
REMARK   89  A    between atoms: _232  and  _233
REMARK   90  A    between atoms: _235  and  _237
REMARK   91  A    between atoms: _237  and  _238
REMARK   92  A    between atoms: _237  and  _240
REMARK   93  A    between atoms: _240  and  _241
REMARK   94  A    between atoms: _243  and  _245
REMARK   95  A    between atoms: _245  and  _246
REMARK   96  A    between atoms: _245  and  _248
REMARK   97  A    between atoms: _248  and  _249
REMARK   98  A    between atoms: _252  and  _254
REMARK   99  A    between atoms: _254  and  _255
REMARK  100  A    between atoms: _254  and  _257
REMARK  101  A    between atoms: _257  and  _258
REMARK  102  A    between atoms: _261  and  _263
REMARK  103  A    between atoms: _263  and  _264
REMARK  104  A    between atoms: _263  and  _266
REMARK  105  A    between atoms: _269  and  _271
REMARK  106  A    between atoms: _271  and  _272
REMARK  107  A    between atoms: _271  and  _274
REMARK  108  A    between atoms: _274  and  _275
REMARK  109  A    between atoms: _280  and  _281
REMARK  110  A    between atoms: _283  and  _285
REMARK  111  A    between atoms: _285  and  _286
REMARK  112  A    between atoms: _285  and  _288
REMARK  113  A    between atoms: _288  and  _289
REMARK  114  A    between atoms: _294  and  _295
REMARK  115  A    between atoms: _297  and  _299
REMARK  116  A    between atoms: _299  and  _300
REMARK  117  A    between atoms: _299  and  _302
REMARK  118  A    between atoms: _305  and  _307
REMARK  119  A    between atoms: _307  and  _308
REMARK  120  A    between atoms: _307  and  _310
REMARK  121  A    between atoms: _310  and  _311
REMARK  122  A    between atoms: _311  and  _312
REMARK  123  A    between atoms: _315  and  _317
REMARK  124  A    between atoms: _317  and  _318
REMARK  125  A    between atoms: _317  and  _320
REMARK  126  A    between atoms: _320  and  _321
REMARK  127  A    between atoms: _323  and  _325
REMARK  128  A    between atoms: _325  and  _326
REMARK  129  A    between atoms: _329  and  _331
REMARK  130  A    between atoms: _331  and  _332
REMARK  131  A    between atoms: _334  and  _336
REMARK  132  A    between atoms: _336  and  _337
REMARK  133  A    between atoms: _336  and  _339
REMARK  134  A    between atoms: _339  and  _340
REMARK  135  A    between atoms: _342  and  _344
REMARK  136  A    between atoms: _344  and  _345
REMARK  137  A    between atoms: _344  and  _347
REMARK  138  A    between atoms: _347  and  _348
REMARK  139  A    between atoms: _358  and  _360
REMARK  140  A    between atoms: _360  and  _361
REMARK  141  A    between atoms: _360  and  _363
REMARK  142  A    between atoms: _363  and  _364
REMARK  143  A    between atoms: _364  and  _365
REMARK  144  A    between atoms: _368  and  _370
REMARK  145  A    between atoms: _370  and  _371
REMARK  146  A    between atoms: _370  and  _373
REMARK  147  A    between atoms: _373  and  _374
REMARK  148  A    between atoms: _384  and  _386
REMARK  149  A    between atoms: _386  and  _387
REMARK  150  A    between atoms: _386  and  _389
REMARK  151  A    between atoms: _389  and  _390
REMARK  152  A    between atoms: _395  and  _397
REMARK  153  A    between atoms: _397  and  _398
REMARK  154  A    between atoms: _397  and  _400
REMARK  155  A    between atoms: _400  and  _401
REMARK  156  A    between atoms: _404  and  _406
REMARK  157  A    between atoms: _406  and  _407
REMARK  158  A    between atoms: _406  and  _409
REMARK  159  A    between atoms: _409  and  _410
REMARK  160  A    between atoms: _416  and  _418
REMARK  161  A    between atoms: _418  and  _419
REMARK  162  A    between atoms: _418  and  _421
REMARK  163  A    between atoms: _421  and  _422
REMARK  164  A    between atoms: _425  and  _427
REMARK  165  A    between atoms: _427  and  _428
REMARK  166  A    between atoms: _427  and  _430
REMARK  167  A    between atoms: _430  and  _431
REMARK  168  A    between atoms: _433  and  _435
REMARK  169  A    between atoms: _435  and  _436
REMARK  170  A    between atoms: _435  and  _438
REMARK  171  A    between atoms: _438  and  _439
REMARK  172  A    between atoms: _442  and  _444
REMARK  173  A    between atoms: _444  and  _445
REMARK  174  A    between atoms: _444  and  _447
REMARK  175  A    between atoms: _447  and  _448
REMARK  176  A    between atoms: _454  and  _456
REMARK  177  A    between atoms: _456  and  _457
REMARK  178  A    between atoms: _456  and  _459
REMARK  179  A    between atoms: _459  and  _460
REMARK  180  A    between atoms: _460  and  _461
REMARK  181  A    between atoms: _461  and  _462
REMARK  182  A    between atoms: _471  and  _473
REMARK  183  A    between atoms: _473  and  _474
REMARK  184  A    between atoms: _473  and  _476
REMARK  185  A    between atoms: _476  and  _477
REMARK  186  A    between atoms: _483  and  _485
REMARK  187  A    between atoms: _485  and  _486
REMARK  188  A    between atoms: _485  and  _488
REMARK  189  A    between atoms: _488  and  _489
REMARK  190  A    between atoms: _491  and  _493
REMARK  191  A    between atoms: _493  and  _494
REMARK  192  A    between atoms: _493  and  _496
REMARK  193  A    between atoms: _496  and  _497
REMARK  194  A    between atoms: _502  and  _504
REMARK  195  A    between atoms: _504  and  _505
REMARK  196  A    between atoms: _504  and  _507
REMARK  197  A    between atoms: _507  and  _508
REMARK  198  A    between atoms: _508  and  _509
REMARK  199  A    between atoms: _512  and  _514
REMARK  200  A    between atoms: _514  and  _515
REMARK  201  A    between atoms: _517  and  _519
REMARK  202  A    between atoms: _519  and  _520
REMARK  203  A    between atoms: _519  and  _522
REMARK  204  A    between atoms: _522  and  _523
REMARK  205  A    between atoms: _525  and  _527
REMARK  206  A    between atoms: _527  and  _528
REMARK  207  A    between atoms: _527  and  _530
REMARK  208  A    between atoms: _530  and  _531
REMARK  209  A    between atoms: _537  and  _539
REMARK  210  A    between atoms: _539  and  _540
REMARK  211  A    between atoms: _539  and  _542
REMARK  212  A    between atoms: _542  and  _543
REMARK  213  A    between atoms: _549  and  _551
REMARK  214  A    between atoms: _551  and  _552
REMARK  215  A    between atoms: _551  and  _554
REMARK  216  A    between atoms: _554  and  _555
REMARK  217  A    between atoms: _558  and  _560
REMARK  218  A    between atoms: _560  and  _561
REMARK  219  A    between atoms: _560  and  _563
REMARK  220  A    between atoms: _563  and  _564
REMARK  221  A    between atoms: _567  and  _569
REMARK  222  A    between atoms: _569  and  _570
REMARK  223  A    between atoms: _569  and  _572
REMARK  224  A    between atoms: _572  and  _573
REMARK  225  A    between atoms: _578  and  _579
REMARK  226  A    between atoms: _581  and  _583
REMARK  227  A    between atoms: _583  and  _584
REMARK  228  A    between atoms: _586  and  _588
REMARK  229  A    between atoms: _588  and  _589
REMARK  230  A    between atoms: _592  and  _594
REMARK  231  A    between atoms: _594  and  _595
REMARK  232  A    between atoms: _594  and  _597
REMARK  233  A    between atoms: _597  and  _598
REMARK  234  A    between atoms: _601  and  _603
REMARK  235  A    between atoms: _603  and  _604
REMARK  236  A    between atoms: _603  and  _606
REMARK  237  A    between atoms: _606  and  _607
REMARK  238  A    between atoms: _609  and  _611
REMARK  239  A    between atoms: _611  and  _612
REMARK  240  A    between atoms: _611  and  _614
REMARK  241  A    between atoms: _617  and  _619
REMARK  242  A    between atoms: _619  and  _620
REMARK  243  A    between atoms: _619  and  _622
REMARK  244  A    between atoms: _622  and  _623
REMARK  245  A    between atoms: _628  and  _630
REMARK  246  A    between atoms: _630  and  _631
REMARK  247  A    between atoms: _630  and  _633
REMARK  248  A    between atoms: _633  and  _634
REMARK  249  A    between atoms: _644  and  _646
REMARK  250  A    between atoms: _646  and  _647
REMARK  251  A    between atoms: _646  and  _649
REMARK  252  A    between atoms: _649  and  _650
REMARK  253  A    between atoms: _650  and  _651
REMARK  254  A    between atoms: _653  and  _655
REMARK  255  A    between atoms: _655  and  _656
REMARK  256  A    between atoms: _655  and  _658
REMARK  257  A    between atoms: _658  and  _659
REMARK  258  A    between atoms: _662  and  _664
REMARK  259  A    between atoms: _664  and  _665
REMARK  260  A    between atoms: _664  and  _667
REMARK  261  A    between atoms: _667  and  _668
REMARK  262  A    between atoms: _673  and  _675
REMARK  263  A    between atoms: _675  and  _676
REMARK  264  A    between atoms: _678  and  _680
REMARK  265  A    between atoms: _680  and  _681
REMARK  266  A    between atoms: _680  and  _683
REMARK  267  A    between atoms: _683  and  _684
REMARK  268  A    between atoms: _689  and  _690
REMARK  269  A    between atoms: _692  and  _694
REMARK  270  A    between atoms: _694  and  _695
REMARK  271  A    between atoms: _694  and  _697
REMARK  272  A    between atoms: _697  and  _698
REMARK  273  A    between atoms: _698  and  _699
REMARK  274  A    between atoms: _702  and  _704
REMARK  275  A    between atoms: _704  and  _705
REMARK  276  A    between atoms: _704  and  _707
REMARK  277  A    between atoms: _707  and  _708
REMARK                            x       y       z     vdW  Elec       q    Type
REMARK                         _______ _______ _______ _____ _____    ______ ____
ROOT
ATOM      1  O   HOH     1       3.556  68.323  58.322  0.00  0.00    +0.000 OA
ENDROOT
TORSDOF 0
REMARK  Name = ../refined-set-2016/1h22/1h22_pocket.pdb
REMARK  277 active torsions:
REMARK  status: ('A' for Active; 'I' for Inactive)
REMARK    1  A    between atoms: _1  and  _3
REMARK    2  A    between atoms: _3  and  _4
REMARK    3  A    between atoms: _3  and  _6
REMARK    4  A    between atoms: _6  and  _7
REMARK    5  A    between atoms: _7  and  _8
REMARK    6  A    between atoms: _13  and  _15
REMARK    7  A    between atoms: _15  and  _16
REMARK    8  A    between atoms: _15  and  _18
REMARK    9  A    between atoms: _18  and  _19
REMARK   10  A    between atoms: _24  and  _25
REMARK   11  A    between atoms: _27  and  _29
REMARK   12  A    between atoms: _29  and  _30
REMARK   13  A    between atoms: _29  and  _32
REMARK   14  A    between atoms: _35  and  _37
REMARK   15  A    between atoms: _37  and  _38
REMARK   16  A    between atoms: _37  and  _40
REMARK   17  A    between atoms: _40  and  _41
REMARK   18  A    between atoms: _44  and  _46
REMARK   19  A    between atoms: _46  and  _47
REMARK   20  A    between atoms: _46  and  _49
REMARK   21  A    between atoms: _49  and  _50
REMARK   22  A    between atoms: _50  and  _51
REMARK   23  A    between atoms: _54  and  _56
REMARK   24  A    between atoms: _56  and  _57
REMARK   25  A    between atoms: _56  and  _59
REMARK   26  A    between atoms: _59  and  _60
REMARK   27  A    between atoms: _60  and  _61
REMARK   28  A    between atoms: _66  and  _68
REMARK   29  A    between atoms: _68  and  _69
REMARK   30  A    between atoms: _68  and  _71
REMARK   31  A    between atoms: _71  and  _72
REMARK   32  A    between atoms: _78  and  _80
REMARK   33  A    between atoms: _80  and  _81
REMARK   34  A    between atoms: _83  and  _85
REMARK   35  A    between atoms: _85  and  _86
REMARK   36  A    between atoms: _85  and  _88
REMARK   37  A    between atoms: _88  and  _89
REMARK   38  A    between atoms: _91  and  _93
REMARK   39  A    between atoms: _93  and  _94
REMARK   40  A    between atoms: _93  and  _96
REMARK   41  A    between atoms: _96  and  _97
REMARK   42  A    between atoms: _97  and  _98
REMARK   43  A    between atoms: _100  and  _102
REMARK   44  A    between atoms: _102  and  _103
REMARK   45  A    between atoms: _102  and  _105
REMARK   46  A    between atoms: _105  and  _106
REMARK   47  A    between atoms: _116  and  _118
REMARK   48  A    between atoms: _118  and  _119
REMARK   49  A    between atoms: _118  and  _121
REMARK   50  A    between atoms: _121  and  _122
REMARK   51  A    between atoms: _128  and  _129
REMARK   52  A    between atoms: _134  and  _136
REMARK   53  A    between atoms: _136  and  _137
REMARK   54  A    between atoms: _136  and  _139
REMARK   55  A    between atoms: _139  and  _140
REMARK   56  A    between atoms: _150  and  _152
REMARK   57  A    between atoms: _152  and  _153
REMARK   58  A    between atoms: _152  and  _155
REMARK   59  A    between atoms: _155  and  _156
REMARK   60  A    between atoms: _159  and  _161
REMARK   61  A    between atoms: _161  and  _162
REMARK   62  A    between atoms: _161  and  _164
REMARK   63  A    between atoms: _164  and  _165
REMARK   64  A    between atoms: _170  and  _171
REMARK   65  A    between atoms: _173  and  _175
REMARK   66  A    between atoms: _175  and  _176
REMARK   67  A    between atoms: _178  and  _180
REMARK   68  A    between atoms: _180  and  _181
REMARK   69  A    between atoms: _183  and  _185
REMARK   70  A    between atoms: _185  and  _186
REMARK   71  A    between atoms: _188  and  _190
REMARK   72  A    between atoms: _190  and  _191
REMARK   73  A    between atoms: _190  and  _193
REMARK   74  A    between atoms: _193  and  _194
REMARK   75  A    between atoms: _200  and  _202
REMARK   76  A    between atoms: _202  and  _203
REMARK   77  A    between atoms: _202  and  _205
REMARK   78  A    between atoms: _205  and  _206
REMARK   79  A    between atoms: _211  and  _212
REMARK   80  A    between atoms: _214  and  _216
REMARK   81  A    between atoms: _216  and  _217
REMARK   82  A    between atoms: _216  and  _219
REMARK   83  A    between atoms: _219  and  _220
REMARK   84  A    between atoms: _222  and  _224
REMARK   85  A    between atoms: _224  and  _225
REMARK   86  A    between atoms: _227  and  _229
REMARK   87  A    between atoms: _229  and  _230
REMARK   88  A    between atoms: _229  and  _232
REMARK   89  A    between atoms: _232  and  _233
REMARK   90  A    between atoms: _235  and  _237
REMARK   91  A    between atoms: _237  and  _238
REMARK   92  A    between atoms: _237  and  _240
REMARK   93  A    between atoms: _240  and  _241
REMARK   94  A    between atoms: _243  and  _245
REMARK   95  A    between atoms: _245  and  _246
REMARK   96  A    between atoms: _245  and  _248
REMARK   97  A    between atoms: _248  and  _249
REMARK   98  A    between atoms: _252  and  _254
REMARK   99  A    between atoms: _254  and  _255
REMARK  100  A    between atoms: _254  and  _257
REMARK  101  A    between atoms: _257  and  _258
REMARK  102  A    between atoms: _261  and  _263
REMARK  103  A    between atoms: _263  and  _264
REMARK  104  A    between atoms: _263  and  _266
REMARK  105  A    between atoms: _269  and  _271
REMARK  106  A    between atoms: _271  and  _272
REMARK  107  A    between atoms: _271  and  _274
REMARK  108  A    between atoms: _274  and  _275
REMARK  109  A    between atoms: _280  and  _281
REMARK  110  A    between atoms: _283  and  _285
REMARK  111  A    between atoms: _285  and  _286
REMARK  112  A    between atoms: _285  and  _288
REMARK  113  A    between atoms: _288  and  _289
REMARK  114  A    between atoms: _294  and  _295
REMARK  115  A    between atoms: _297  and  _299
REMARK  116  A    between atoms: _299  and  _300
REMARK  117  A    between atoms: _299  and  _302
REMARK  118  A    between atoms: _305  and  _307
REMARK  119  A    between atoms: _307  and  _308
REMARK  120  A    between atoms: _307  and  _310
REMARK  121  A    between atoms: _310  and  _311
REMARK  122  A    between atoms: _311  and  _312
REMARK  123  A    between atoms: _315  and  _317
REMARK  124  A    between atoms: _317  and  _318
REMARK  125  A    between atoms: _317  and  _320
REMARK  126  A    between atoms: _320  and  _321
REMARK  127  A    between atoms: _323  and  _325
REMARK  128  A    between atoms: _325  and  _326
REMARK  129  A    between atoms: _329  and  _331
REMARK  130  A    between atoms: _331  and  _332
REMARK  131  A    between atoms: _334  and  _336
REMARK  132  A    between atoms: _336  and  _337
REMARK  133  A    between atoms: _336  and  _339
REMARK  134  A    between atoms: _339  and  _340
REMARK  135  A    between atoms: _342  and  _344
REMARK  136  A    between atoms: _344  and  _345
REMARK  137  A    between atoms: _344  and  _347
REMARK  138  A    between atoms: _347  and  _348
REMARK  139  A    between atoms: _358  and  _360
REMARK  140  A    between atoms: _360  and  _361
REMARK  141  A    between atoms: _360  and  _363
REMARK  142  A    between atoms: _363  and  _364
REMARK  143  A    between atoms: _364  and  _365
REMARK  144  A    between atoms: _368  and  _370
REMARK  145  A    between atoms: _370  and  _371
REMARK  146  A    between atoms: _370  and  _373
REMARK  147  A    between atoms: _373  and  _374
REMARK  148  A    between atoms: _384  and  _386
REMARK  149  A    between atoms: _386  and  _387
REMARK  150  A    between atoms: _386  and  _389
REMARK  151  A    between atoms: _389  and  _390
REMARK  152  A    between atoms: _395  and  _397
REMARK  153  A    between atoms: _397  and  _398
REMARK  154  A    between atoms: _397  and  _400
REMARK  155  A    between atoms: _400  and  _401
REMARK  156  A    between atoms: _404  and  _406
REMARK  157  A    between atoms: _406  and  _407
REMARK  158  A    between atoms: _406  and  _409
REMARK  159  A    between atoms: _409  and  _410
REMARK  160  A    between atoms: _416  and  _418
REMARK  161  A    between atoms: _418  and  _419
REMARK  162  A    between atoms: _418  and  _421
REMARK  163  A    between atoms: _421  and  _422
REMARK  164  A    between atoms: _425  and  _427
REMARK  165  A    between atoms: _427  and  _428
REMARK  166  A    between atoms: _427  and  _430
REMARK  167  A    between atoms: _430  and  _431
REMARK  168  A    between atoms: _433  and  _435
REMARK  169  A    between atoms: _435  and  _436
REMARK  170  A    between atoms: _435  and  _438
REMARK  171  A    between atoms: _438  and  _439
REMARK  172  A    between atoms: _442  and  _444
REMARK  173  A    between atoms: _444  and  _445
REMARK  174  A    between atoms: _444  and  _447
REMARK  175  A    between atoms: _447  and  _448
REMARK  176  A    between atoms: _454  and  _456
REMARK  177  A    between atoms: _456  and  _457
REMARK  178  A    between atoms: _456  and  _459
REMARK  179  A    between atoms: _459  and  _460
REMARK  180  A    between atoms: _460  and  _461
REMARK  181  A    between atoms: _461  and  _462
REMARK  182  A    between atoms: _471  and  _473
REMARK  183  A    between atoms: _473  and  _474
REMARK  184  A    between atoms: _473  and  _476
REMARK  185  A    between atoms: _476  and  _477
REMARK  186  A    between atoms: _483  and  _485
REMARK  187  A    between atoms: _485  and  _486
REMARK  188  A    between atoms: _485  and  _488
REMARK  189  A    between atoms: _488  and  _489
REMARK  190  A    between atoms: _491  and  _493
REMARK  191  A    between atoms: _493  and  _494
REMARK  192  A    between atoms: _493  and  _496
REMARK  193  A    between atoms: _496  and  _497
REMARK  194  A    between atoms: _502  and  _504
REMARK  195  A    between atoms: _504  and  _505
REMARK  196  A    between atoms: _504  and  _507
REMARK  197  A    between atoms: _507  and  _508
REMARK  198  A    between atoms: _508  and  _509
REMARK  199  A    between atoms: _512  and  _514
REMARK  200  A    between atoms: _514  and  _515
REMARK  201  A    between atoms: _517  and  _519
REMARK  202  A    between atoms: _519  and  _520
REMARK  203  A    between atoms: _519  and  _522
REMARK  204  A    between atoms: _522  and  _523
REMARK  205  A    between atoms: _525  and  _527
REMARK  206  A    between atoms: _527  and  _528
REMARK  207  A    between atoms: _527  and  _530
REMARK  208  A    between atoms: _530  and  _531
REMARK  209  A    between atoms: _537  and  _539
REMARK  210  A    between atoms: _539  and  _540
REMARK  211  A    between atoms: _539  and  _542
REMARK  212  A    between atoms: _542  and  _543
REMARK  213  A    between atoms: _549  and  _551
REMARK  214  A    between atoms: _551  and  _552
REMARK  215  A    between atoms: _551  and  _554
REMARK  216  A    between atoms: _554  and  _555
REMARK  217  A    between atoms: _558  and  _560
REMARK  218  A    between atoms: _560  and  _561
REMARK  219  A    between atoms: _560  and  _563
REMARK  220  A    between atoms: _563  and  _564
REMARK  221  A    between atoms: _567  and  _569
REMARK  222  A    between atoms: _569  and  _570
REMARK  223  A    between atoms: _569  and  _572
REMARK  224  A    between atoms: _572  and  _573
REMARK  225  A    between atoms: _578  and  _579
REMARK  226  A    between atoms: _581  and  _583
REMARK  227  A    between atoms: _583  and  _584
REMARK  228  A    between atoms: _586  and  _588
REMARK  229  A    between atoms: _588  and  _589
REMARK  230  A    between atoms: _592  and  _594
REMARK  231  A    between atoms: _594  and  _595
REMARK  232  A    between atoms: _594  and  _597
REMARK  233  A    between atoms: _597  and  _598
REMARK  234  A    between atoms: _601  and  _603
REMARK  235  A    between atoms: _603  and  _604
REMARK  236  A    between atoms: _603  and  _606
REMARK  237  A    between atoms: _606  and  _607
REMARK  238  A    between atoms: _609  and  _611
REMARK  239  A    between atoms: _611  and  _612
REMARK  240  A    between atoms: _611  and  _614
REMARK  241  A    between atoms: _617  and  _619
REMARK  242  A    between atoms: _619  and  _620
REMARK  243  A    between atoms: _619  and  _622
REMARK  244  A    between atoms: _622  and  _623
REMARK  245  A    between atoms: _628  and  _630
REMARK  246  A    between atoms: _630  and  _631
REMARK  247  A    between atoms: _630  and  _633
REMARK  248  A    between atoms: _633  and  _634
REMARK  249  A    between atoms: _644  and  _646
REMARK  250  A    between atoms: _646  and  _647
REMARK  251  A    between atoms: _646  and  _649
REMARK  252  A    between atoms: _649  and  _650
REMARK  253  A    between atoms: _650  and  _651
REMARK  254  A    between atoms: _653  and  _655
REMARK  255  A    between atoms: _655  and  _656
REMARK  256  A    between atoms: _655  and  _658
REMARK  257  A    between atoms: _658  and  _659
REMARK  258  A    between atoms: _662  and  _664
REMARK  259  A    between atoms: _664  and  _665
REMARK  260  A    between atoms: _664  and  _667
REMARK  261  A    between atoms: _667  and  _668
REMARK  262  A    between atoms: _673  and  _675
REMARK  263  A    between atoms: _675  and  _676
REMARK  264  A    between atoms: _678  and  _680
REMARK  265  A    between atoms: _680  and  _681
REMARK  266  A    between atoms: _680  and  _683
REMARK  267  A    between atoms: _683  and  _684
REMARK  268  A    between atoms: _689  and  _690
REMARK  269  A    between atoms: _692  and  _694
REMARK  270  A    between atoms: _694  and  _695
REMARK  271  A    between atoms: _694  and  _697
REMARK  272  A    between atoms: _697  and  _698
REMARK  273  A    between atoms: _698  and  _699
REMARK  274  A    between atoms: _702  and  _704
REMARK  275  A    between atoms: _704  and  _705
REMARK  276  A    between atoms: _704  and  _707
REMARK  277  A    between atoms: _707  and  _708
REMARK                            x       y       z     vdW  Elec       q    Type
REMARK                         _______ _______ _______ _____ _____    ______ ____
ROOT
ATOM      1  O   HOH     1      10.592  68.452  59.831  0.00  0.00    +0.000 OA
ENDROOT
TORSDOF 0
REMARK  Name = ../refined-set-2016/1h22/1h22_pocket.pdb
REMARK  277 active torsions:
REMARK  status: ('A' for Active; 'I' for Inactive)
REMARK    1  A    between atoms: _1  and  _3
REMARK    2  A    between atoms: _3  and  _4
REMARK    3  A    between atoms: _3  and  _6
REMARK    4  A    between atoms: _6  and  _7
REMARK    5  A    between atoms: _7  and  _8
REMARK    6  A    between atoms: _13  and  _15
REMARK    7  A    between atoms: _15  and  _16
REMARK    8  A    between atoms: _15  and  _18
REMARK    9  A    between atoms: _18  and  _19
REMARK   10  A    between atoms: _24  and  _25
REMARK   11  A    between atoms: _27  and  _29
REMARK   12  A    between atoms: _29  and  _30
REMARK   13  A    between atoms: _29  and  _32
REMARK   14  A    between atoms: _35  and  _37
REMARK   15  A    between atoms: _37  and  _38
REMARK   16  A    between atoms: _37  and  _40
REMARK   17  A    between atoms: _40  and  _41
REMARK   18  A    between atoms: _44  and  _46
REMARK   19  A    between atoms: _46  and  _47
REMARK   20  A    between atoms: _46  and  _49
REMARK   21  A    between atoms: _49  and  _50
REMARK   22  A    between atoms: _50  and  _51
REMARK   23  A    between atoms: _54  and  _56
REMARK   24  A    between atoms: _56  and  _57
REMARK   25  A    between atoms: _56  and  _59
REMARK   26  A    between atoms: _59  and  _60
REMARK   27  A    between atoms: _60  and  _61
REMARK   28  A    between atoms: _66  and  _68
REMARK   29  A    between atoms: _68  and  _69
REMARK   30  A    between atoms: _68  and  _71
REMARK   31  A    between atoms: _71  and  _72
REMARK   32  A    between atoms: _78  and  _80
REMARK   33  A    between atoms: _80  and  _81
REMARK   34  A    between atoms: _83  and  _85
REMARK   35  A    between atoms: _85  and  _86
REMARK   36  A    between atoms: _85  and  _88
REMARK   37  A    between atoms: _88  and  _89
REMARK   38  A    between atoms: _91  and  _93
REMARK   39  A    between atoms: _93  and  _94
REMARK   40  A    between atoms: _93  and  _96
REMARK   41  A    between atoms: _96  and  _97
REMARK   42  A    between atoms: _97  and  _98
REMARK   43  A    between atoms: _100  and  _102
REMARK   44  A    between atoms: _102  and  _103
REMARK   45  A    between atoms: _102  and  _105
REMARK   46  A    between atoms: _105  and  _106
REMARK   47  A    between atoms: _116  and  _118
REMARK   48  A    between atoms: _118  and  _119
REMARK   49  A    between atoms: _118  and  _121
REMARK   50  A    between atoms: _121  and  _122
REMARK   51  A    between atoms: _128  and  _129
REMARK   52  A    between atoms: _134  and  _136
REMARK   53  A    between atoms: _136  and  _137
REMARK   54  A    between atoms: _136  and  _139
REMARK   55  A    between atoms: _139  and  _140
REMARK   56  A    between atoms: _150  and  _152
REMARK   57  A    between atoms: _152  and  _153
REMARK   58  A    between atoms: _152  and  _155
REMARK   59  A    between atoms: _155  and  _156
REMARK   60  A    between atoms: _159  and  _161
REMARK   61  A    between atoms: _161  and  _162
REMARK   62  A    between atoms: _161  and  _164
REMARK   63  A    between atoms: _164  and  _165
REMARK   64  A    between atoms: _170  and  _171
REMARK   65  A    between atoms: _173  and  _175
REMARK   66  A    between atoms: _175  and  _176
REMARK   67  A    between atoms: _178  and  _180
REMARK   68  A    between atoms: _180  and  _181
REMARK   69  A    between atoms: _183  and  _185
REMARK   70  A    between atoms: _185  and  _186
REMARK   71  A    between atoms: _188  and  _190
REMARK   72  A    between atoms: _190  and  _191
REMARK   73  A    between atoms: _190  and  _193
REMARK   74  A    between atoms: _193  and  _194
REMARK   75  A    between atoms: _200  and  _202
REMARK   76  A    between atoms: _202  and  _203
REMARK   77  A    between atoms: _202  and  _205
REMARK   78  A    between atoms: _205  and  _206
REMARK   79  A    between atoms: _211  and  _212
REMARK   80  A    between atoms: _214  and  _216
REMARK   81  A    between atoms: _216  and  _217
REMARK   82  A    between atoms: _216  and  _219
REMARK   83  A    between atoms: _219  and  _220
REMARK   84  A    between atoms: _222  and  _224
REMARK   85  A    between atoms: _224  and  _225
REMARK   86  A    between atoms: _227  and  _229
REMARK   87  A    between atoms: _229  and  _230
REMARK   88  A    between atoms: _229  and  _232
REMARK   89  A    between atoms: _232  and  _233
REMARK   90  A    between atoms: _235  and  _237
REMARK   91  A    between atoms: _237  and  _238
REMARK   92  A    between atoms: _237  and  _240
REMARK   93  A    between atoms: _240  and  _241
REMARK   94  A    between atoms: _243  and  _245
REMARK   95  A    between atoms: _245  and  _246
REMARK   96  A    between atoms: _245  and  _248
REMARK   97  A    between atoms: _248  and  _249
REMARK   98  A    between atoms: _252  and  _254
REMARK   99  A    between atoms: _254  and  _255
REMARK  100  A    between atoms: _254  and  _257
REMARK  101  A    between atoms: _257  and  _258
REMARK  102  A    between atoms: _261  and  _263
REMARK  103  A    between atoms: _263  and  _264
REMARK  104  A    between atoms: _263  and  _266
REMARK  105  A    between atoms: _269  and  _271
REMARK  106  A    between atoms: _271  and  _272
REMARK  107  A    between atoms: _271  and  _274
REMARK  108  A    between atoms: _274  and  _275
REMARK  109  A    between atoms: _280  and  _281
REMARK  110  A    between atoms: _283  and  _285
REMARK  111  A    between atoms: _285  and  _286
REMARK  112  A    between atoms: _285  and  _288
REMARK  113  A    between atoms: _288  and  _289
REMARK  114  A    between atoms: _294  and  _295
REMARK  115  A    between atoms: _297  and  _299
REMARK  116  A    between atoms: _299  and  _300
REMARK  117  A    between atoms: _299  and  _302
REMARK  118  A    between atoms: _305  and  _307
REMARK  119  A    between atoms: _307  and  _308
REMARK  120  A    between atoms: _307  and  _310
REMARK  121  A    between atoms: _310  and  _311
REMARK  122  A    between atoms: _311  and  _312
REMARK  123  A    between atoms: _315  and  _317
REMARK  124  A    between atoms: _317  and  _318
REMARK  125  A    between atoms: _317  and  _320
REMARK  126  A    between atoms: _320  and  _321
REMARK  127  A    between atoms: _323  and  _325
REMARK  128  A    between atoms: _325  and  _326
REMARK  129  A    between atoms: _329  and  _331
REMARK  130  A    between atoms: _331  and  _332
REMARK  131  A    between atoms: _334  and  _336
REMARK  132  A    between atoms: _336  and  _337
REMARK  133  A    between atoms: _336  and  _339
REMARK  134  A    between atoms: _339  and  _340
REMARK  135  A    between atoms: _342  and  _344
REMARK  136  A    between atoms: _344  and  _345
REMARK  137  A    between atoms: _344  and  _347
REMARK  138  A    between atoms: _347  and  _348
REMARK  139  A    between atoms: _358  and  _360
REMARK  140  A    between atoms: _360  and  _361
REMARK  141  A    between atoms: _360  and  _363
REMARK  142  A    between atoms: _363  and  _364
REMARK  143  A    between atoms: _364  and  _365
REMARK  144  A    between atoms: _368  and  _370
REMARK  145  A    between atoms: _370  and  _371
REMARK  146  A    between atoms: _370  and  _373
REMARK  147  A    between atoms: _373  and  _374
REMARK  148  A    between atoms: _384  and  _386
REMARK  149  A    between atoms: _386  and  _387
REMARK  150  A    between atoms: _386  and  _389
REMARK  151  A    between atoms: _389  and  _390
REMARK  152  A    between atoms: _395  and  _397
REMARK  153  A    between atoms: _397  and  _398
REMARK  154  A    between atoms: _397  and  _400
REMARK  155  A    between atoms: _400  and  _401
REMARK  156  A    between atoms: _404  and  _406
REMARK  157  A    between atoms: _406  and  _407
REMARK  158  A    between atoms: _406  and  _409
REMARK  159  A    between atoms: _409  and  _410
REMARK  160  A    between atoms: _416  and  _418
REMARK  161  A    between atoms: _418  and  _419
REMARK  162  A    between atoms: _418  and  _421
REMARK  163  A    between atoms: _421  and  _422
REMARK  164  A    between atoms: _425  and  _427
REMARK  165  A    between atoms: _427  and  _428
REMARK  166  A    between atoms: _427  and  _430
REMARK  167  A    between atoms: _430  and  _431
REMARK  168  A    between atoms: _433  and  _435
REMARK  169  A    between atoms: _435  and  _436
REMARK  170  A    between atoms: _435  and  _438
REMARK  171  A    between atoms: _438  and  _439
REMARK  172  A    between atoms: _442  and  _444
REMARK  173  A    between atoms: _444  and  _445
REMARK  174  A    between atoms: _444  and  _447
REMARK  175  A    between atoms: _447  and  _448
REMARK  176  A    between atoms: _454  and  _456
REMARK  177  A    between atoms: _456  and  _457
REMARK  178  A    between atoms: _456  and  _459
REMARK  179  A    between atoms: _459  and  _460
REMARK  180  A    between atoms: _460  and  _461
REMARK  181  A    between atoms: _461  and  _462
REMARK  182  A    between atoms: _471  and  _473
REMARK  183  A    between atoms: _473  and  _474
REMARK  184  A    between atoms: _473  and  _476
REMARK  185  A    between atoms: _476  and  _477
REMARK  186  A    between atoms: _483  and  _485
REMARK  187  A    between atoms: _485  and  _486
REMARK  188  A    between atoms: _485  and  _488
REMARK  189  A    between atoms: _488  and  _489
REMARK  190  A    between atoms: _491  and  _493
REMARK  191  A    between atoms: _493  and  _494
REMARK  192  A    between atoms: _493  and  _496
REMARK  193  A    between atoms: _496  and  _497
REMARK  194  A    between atoms: _502  and  _504
REMARK  195  A    between atoms: _504  and  _505
REMARK  196  A    between atoms: _504  and  _507
REMARK  197  A    between atoms: _507  and  _508
REMARK  198  A    between atoms: _508  and  _509
REMARK  199  A    between atoms: _512  and  _514
REMARK  200  A    between atoms: _514  and  _515
REMARK  201  A    between atoms: _517  and  _519
REMARK  202  A    between atoms: _519  and  _520
REMARK  203  A    between atoms: _519  and  _522
REMARK  204  A    between atoms: _522  and  _523
REMARK  205  A    between atoms: _525  and  _527
REMARK  206  A    between atoms: _527  and  _528
REMARK  207  A    between atoms: _527  and  _530
REMARK  208  A    between atoms: _530  and  _531
REMARK  209  A    between atoms: _537  and  _539
REMARK  210  A    between atoms: _539  and  _540
REMARK  211  A    between atoms: _539  and  _542
REMARK  212  A    between atoms: _542  and  _543
REMARK  213  A    between atoms: _549  and  _551
REMARK  214  A    between atoms: _551  and  _552
REMARK  215  A    between atoms: _551  and  _554
REMARK  216  A    between atoms: _554  and  _555
REMARK  217  A    between atoms: _558  and  _560
REMARK  218  A    between atoms: _560  and  _561
REMARK  219  A    between atoms: _560  and  _563
REMARK  220  A    between atoms: _563  and  _564
REMARK  221  A    between atoms: _567  and  _569
REMARK  222  A    between atoms: _569  and  _570
REMARK  223  A    between atoms: _569  and  _572
REMARK  224  A    between atoms: _572  and  _573
REMARK  225  A    between atoms: _578  and  _579
REMARK  226  A    between atoms: _581  and  _583
REMARK  227  A    between atoms: _583  and  _584
REMARK  228  A    between atoms: _586  and  _588
REMARK  229  A    between atoms: _588  and  _589
REMARK  230  A    between atoms: _592  and  _594
REMARK  231  A    between atoms: _594  and  _595
REMARK  232  A    between atoms: _594  and  _597
REMARK  233  A    between atoms: _597  and  _598
REMARK  234  A    between atoms: _601  and  _603
REMARK  235  A    between atoms: _603  and  _604
REMARK  236  A    between atoms: _603  and  _606
REMARK  237  A    between atoms: _606  and  _607
REMARK  238  A    between atoms: _609  and  _611
REMARK  239  A    between atoms: _611  and  _612
REMARK  240  A    between atoms: _611  and  _614
REMARK  241  A    between atoms: _617  and  _619
REMARK  242  A    between atoms: _619  and  _620
REMARK  243  A    between atoms: _619  and  _622
REMARK  244  A    between atoms: _622  and  _623
REMARK  245  A    between atoms: _628  and  _630
REMARK  246  A    between atoms: _630  and  _631
REMARK  247  A    between atoms: _630  and  _633
REMARK  248  A    between atoms: _633  and  _634
REMARK  249  A    between atoms: _644  and  _646
REMARK  250  A    between atoms: _646  and  _647
REMARK  251  A    between atoms: _646  and  _649
REMARK  252  A    between atoms: _649  and  _650
REMARK  253  A    between atoms: _650  and  _651
REMARK  254  A    between atoms: _653  and  _655
REMARK  255  A    between atoms: _655  and  _656
REMARK  256  A    between atoms: _655  and  _658
REMARK  257  A    between atoms: _658  and  _659
REMARK  258  A    between atoms: _662  and  _664
REMARK  259  A    between atoms: _664  and  _665
REMARK  260  A    between atoms: _664  and  _667
REMARK  261  A    between atoms: _667  and  _668
REMARK  262  A    between atoms: _673  and  _675
REMARK  263  A    between atoms: _675  and  _676
REMARK  264  A    between atoms: _678  and  _680
REMARK  265  A    between atoms: _680  and  _681
REMARK  266  A    between atoms: _680  and  _683
REMARK  267  A    between atoms: _683  and  _684
REMARK  268  A    between atoms: _689  and  _690
REMARK  269  A    between atoms: _692  and  _694
REMARK  270  A    between atoms: _694  and  _695
REMARK  271  A    between atoms: _694  and  _697
REMARK  272  A    between atoms: _697  and  _698
REMARK  273  A    between atoms: _698  and  _699
REMARK  274  A    between atoms: _702  and  _704
REMARK  275  A    between atoms: _704  and  _705
REMARK  276  A    between atoms: _704  and  _707
REMARK  277  A    between atoms: _707  and  _708
REMARK                            x       y       z     vdW  Elec       q    Type
REMARK                         _______ _______ _______ _____ _____    ______ ____
ROOT
ATOM      1  O   HOH     1       4.547  64.645  63.305  0.00  0.00    +0.000 OA
ENDROOT
TORSDOF 0
REMARK  Name = ../refined-set-2016/1h22/1h22_pocket.pdb
REMARK  277 active torsions:
REMARK  status: ('A' for Active; 'I' for Inactive)
REMARK    1  A    between atoms: _1  and  _3
REMARK    2  A    between atoms: _3  and  _4
REMARK    3  A    between atoms: _3  and  _6
REMARK    4  A    between atoms: _6  and  _7
REMARK    5  A    between atoms: _7  and  _8
REMARK    6  A    between atoms: _13  and  _15
REMARK    7  A    between atoms: _15  and  _16
REMARK    8  A    between atoms: _15  and  _18
REMARK    9  A    between atoms: _18  and  _19
REMARK   10  A    between atoms: _24  and  _25
REMARK   11  A    between atoms: _27  and  _29
REMARK   12  A    between atoms: _29  and  _30
REMARK   13  A    between atoms: _29  and  _32
REMARK   14  A    between atoms: _35  and  _37
REMARK   15  A    between atoms: _37  and  _38
REMARK   16  A    between atoms: _37  and  _40
REMARK   17  A    between atoms: _40  and  _41
REMARK   18  A    between atoms: _44  and  _46
REMARK   19  A    between atoms: _46  and  _47
REMARK   20  A    between atoms: _46  and  _49
REMARK   21  A    between atoms: _49  and  _50
REMARK   22  A    between atoms: _50  and  _51
REMARK   23  A    between atoms: _54  and  _56
REMARK   24  A    between atoms: _56  and  _57
REMARK   25  A    between atoms: _56  and  _59
REMARK   26  A    between atoms: _59  and  _60
REMARK   27  A    between atoms: _60  and  _61
REMARK   28  A    between atoms: _66  and  _68
REMARK   29  A    between atoms: _68  and  _69
REMARK   30  A    between atoms: _68  and  _71
REMARK   31  A    between atoms: _71  and  _72
REMARK   32  A    between atoms: _78  and  _80
REMARK   33  A    between atoms: _80  and  _81
REMARK   34  A    between atoms: _83  and  _85
REMARK   35  A    between atoms: _85  and  _86
REMARK   36  A    between atoms: _85  and  _88
REMARK   37  A    between atoms: _88  and  _89
REMARK   38  A    between atoms: _91  and  _93
REMARK   39  A    between atoms: _93  and  _94
REMARK   40  A    between atoms: _93  and  _96
REMARK   41  A    between atoms: _96  and  _97
REMARK   42  A    between atoms: _97  and  _98
REMARK   43  A    between atoms: _100  and  _102
REMARK   44  A    between atoms: _102  and  _103
REMARK   45  A    between atoms: _102  and  _105
REMARK   46  A    between atoms: _105  and  _106
REMARK   47  A    between atoms: _116  and  _118
REMARK   48  A    between atoms: _118  and  _119
REMARK   49  A    between atoms: _118  and  _121
REMARK   50  A    between atoms: _121  and  _122
REMARK   51  A    between atoms: _128  and  _129
REMARK   52  A    between atoms: _134  and  _136
REMARK   53  A    between atoms: _136  and  _137
REMARK   54  A    between atoms: _136  and  _139
REMARK   55  A    between atoms: _139  and  _140
REMARK   56  A    between atoms: _150  and  _152
REMARK   57  A    between atoms: _152  and  _153
REMARK   58  A    between atoms: _152  and  _155
REMARK   59  A    between atoms: _155  and  _156
REMARK   60  A    between atoms: _159  and  _161
REMARK   61  A    between atoms: _161  and  _162
REMARK   62  A    between atoms: _161  and  _164
REMARK   63  A    between atoms: _164  and  _165
REMARK   64  A    between atoms: _170  and  _171
REMARK   65  A    between atoms: _173  and  _175
REMARK   66  A    between atoms: _175  and  _176
REMARK   67  A    between atoms: _178  and  _180
REMARK   68  A    between atoms: _180  and  _181
REMARK   69  A    between atoms: _183  and  _185
REMARK   70  A    between atoms: _185  and  _186
REMARK   71  A    between atoms: _188  and  _190
REMARK   72  A    between atoms: _190  and  _191
REMARK   73  A    between atoms: _190  and  _193
REMARK   74  A    between atoms: _193  and  _194
REMARK   75  A    between atoms: _200  and  _202
REMARK   76  A    between atoms: _202  and  _203
REMARK   77  A    between atoms: _202  and  _205
REMARK   78  A    between atoms: _205  and  _206
REMARK   79  A    between atoms: _211  and  _212
REMARK   80  A    between atoms: _214  and  _216
REMARK   81  A    between atoms: _216  and  _217
REMARK   82  A    between atoms: _216  and  _219
REMARK   83  A    between atoms: _219  and  _220
REMARK   84  A    between atoms: _222  and  _224
REMARK   85  A    between atoms: _224  and  _225
REMARK   86  A    between atoms: _227  and  _229
REMARK   87  A    between atoms: _229  and  _230
REMARK   88  A    between atoms: _229  and  _232
REMARK   89  A    between atoms: _232  and  _233
REMARK   90  A    between atoms: _235  and  _237
REMARK   91  A    between atoms: _237  and  _238
REMARK   92  A    between atoms: _237  and  _240
REMARK   93  A    between atoms: _240  and  _241
REMARK   94  A    between atoms: _243  and  _245
REMARK   95  A    between atoms: _245  and  _246
REMARK   96  A    between atoms: _245  and  _248
REMARK   97  A    between atoms: _248  and  _249
REMARK   98  A    between atoms: _252  and  _254
REMARK   99  A    between atoms: _254  and  _255
REMARK  100  A    between atoms: _254  and  _257
REMARK  101  A    between atoms: _257  and  _258
REMARK  102  A    between atoms: _261  and  _263
REMARK  103  A    between atoms: _263  and  _264
REMARK  104  A    between atoms: _263  and  _266
REMARK  105  A    between atoms: _269  and  _271
REMARK  106  A    between atoms: _271  and  _272
REMARK  107  A    between atoms: _271  and  _274
REMARK  108  A    between atoms: _274  and  _275
REMARK  109  A    between atoms: _280  and  _281
REMARK  110  A    between atoms: _283  and  _285
REMARK  111  A    between atoms: _285  and  _286
REMARK  112  A    between atoms: _285  and  _288
REMARK  113  A    between atoms: _288  and  _289
REMARK  114  A    between atoms: _294  and  _295
REMARK  115  A    between atoms: _297  and  _299
REMARK  116  A    between atoms: _299  and  _300
REMARK  117  A    between atoms: _299  and  _302
REMARK  118  A    between atoms: _305  and  _307
REMARK  119  A    between atoms: _307  and  _308
REMARK  120  A    between atoms: _307  and  _310
REMARK  121  A    between atoms: _310  and  _311
REMARK  122  A    between atoms: _311  and  _312
REMARK  123  A    between atoms: _315  and  _317
REMARK  124  A    between atoms: _317  and  _318
REMARK  125  A    between atoms: _317  and  _320
REMARK  126  A    between atoms: _320  and  _321
REMARK  127  A    between atoms: _323  and  _325
REMARK  128  A    between atoms: _325  and  _326
REMARK  129  A    between atoms: _329  and  _331
REMARK  130  A    between atoms: _331  and  _332
REMARK  131  A    between atoms: _334  and  _336
REMARK  132  A    between atoms: _336  and  _337
REMARK  133  A    between atoms: _336  and  _339
REMARK  134  A    between atoms: _339  and  _340
REMARK  135  A    between atoms: _342  and  _344
REMARK  136  A    between atoms: _344  and  _345
REMARK  137  A    between atoms: _344  and  _347
REMARK  138  A    between atoms: _347  and  _348
REMARK  139  A    between atoms: _358  and  _360
REMARK  140  A    between atoms: _360  and  _361
REMARK  141  A    between atoms: _360  and  _363
REMARK  142  A    between atoms: _363  and  _364
REMARK  143  A    between atoms: _364  and  _365
REMARK  144  A    between atoms: _368  and  _370
REMARK  145  A    between atoms: _370  and  _371
REMARK  146  A    between atoms: _370  and  _373
REMARK  147  A    between atoms: _373  and  _374
REMARK  148  A    between atoms: _384  and  _386
REMARK  149  A    between atoms: _386  and  _387
REMARK  150  A    between atoms: _386  and  _389
REMARK  151  A    between atoms: _389  and  _390
REMARK  152  A    between atoms: _395  and  _397
REMARK  153  A    between atoms: _397  and  _398
REMARK  154  A    between atoms: _397  and  _400
REMARK  155  A    between atoms: _400  and  _401
REMARK  156  A    between atoms: _404  and  _406
REMARK  157  A    between atoms: _406  and  _407
REMARK  158  A    between atoms: _406  and  _409
REMARK  159  A    between atoms: _409  and  _410
REMARK  160  A    between atoms: _416  and  _418
REMARK  161  A    between atoms: _418  and  _419
REMARK  162  A    between atoms: _418  and  _421
REMARK  163  A    between atoms: _421  and  _422
REMARK  164  A    between atoms: _425  and  _427
REMARK  165  A    between atoms: _427  and  _428
REMARK  166  A    between atoms: _427  and  _430
REMARK  167  A    between atoms: _430  and  _431
REMARK  168  A    between atoms: _433  and  _435
REMARK  169  A    between atoms: _435  and  _436
REMARK  170  A    between atoms: _435  and  _438
REMARK  171  A    between atoms: _438  and  _439
REMARK  172  A    between atoms: _442  and  _444
REMARK  173  A    between atoms: _444  and  _445
REMARK  174  A    between atoms: _444  and  _447
REMARK  175  A    between atoms: _447  and  _448
REMARK  176  A    between atoms: _454  and  _456
REMARK  177  A    between atoms: _456  and  _457
REMARK  178  A    between atoms: _456  and  _459
REMARK  179  A    between atoms: _459  and  _460
REMARK  180  A    between atoms: _460  and  _461
REMARK  181  A    between atoms: _461  and  _462
REMARK  182  A    between atoms: _471  and  _473
REMARK  183  A    between atoms: _473  and  _474
REMARK  184  A    between atoms: _473  and  _476
REMARK  185  A    between atoms: _476  and  _477
REMARK  186  A    between atoms: _483  and  _485
REMARK  187  A    between atoms: _485  and  _486
REMARK  188  A    between atoms: _485  and  _488
REMARK  189  A    between atoms: _488  and  _489
REMARK  190  A    between atoms: _491  and  _493
REMARK  191  A    between atoms: _493  and  _494
REMARK  192  A    between atoms: _493  and  _496
REMARK  193  A    between atoms: _496  and  _497
REMARK  194  A    between atoms: _502  and  _504
REMARK  195  A    between atoms: _504  and  _505
REMARK  196  A    between atoms: _504  and  _507
REMARK  197  A    between atoms: _507  and  _508
REMARK  198  A    between atoms: _508  and  _509
REMARK  199  A    between atoms: _512  and  _514
REMARK  200  A    between atoms: _514  and  _515
REMARK  201  A    between atoms: _517  and  _519
REMARK  202  A    between atoms: _519  and  _520
REMARK  203  A    between atoms: _519  and  _522
REMARK  204  A    between atoms: _522  and  _523
REMARK  205  A    between atoms: _525  and  _527
REMARK  206  A    between atoms: _527  and  _528
REMARK  207  A    between atoms: _527  and  _530
REMARK  208  A    between atoms: _530  and  _531
REMARK  209  A    between atoms: _537  and  _539
REMARK  210  A    between atoms: _539  and  _540
REMARK  211  A    between atoms: _539  and  _542
REMARK  212  A    between atoms: _542  and  _543
REMARK  213  A    between atoms: _549  and  _551
REMARK  214  A    between atoms: _551  and  _552
REMARK  215  A    between atoms: _551  and  _554
REMARK  216  A    between atoms: _554  and  _555
REMARK  217  A    between atoms: _558  and  _560
REMARK  218  A    between atoms: _560  and  _561
REMARK  219  A    between atoms: _560  and  _563
REMARK  220  A    between atoms: _563  and  _564
REMARK  221  A    between atoms: _567  and  _569
REMARK  222  A    between atoms: _569  and  _570
REMARK  223  A    between atoms: _569  and  _572
REMARK  224  A    between atoms: _572  and  _573
REMARK  225  A    between atoms: _578  and  _579
REMARK  226  A    between atoms: _581  and  _583
REMARK  227  A    between atoms: _583  and  _584
REMARK  228  A    between atoms: _586  and  _588
REMARK  229  A    between atoms: _588  and  _589
REMARK  230  A    between atoms: _592  and  _594
REMARK  231  A    between atoms: _594  and  _595
REMARK  232  A    between atoms: _594  and  _597
REMARK  233  A    between atoms: _597  and  _598
REMARK  234  A    between atoms: _601  and  _603
REMARK  235  A    between atoms: _603  and  _604
REMARK  236  A    between atoms: _603  and  _606
REMARK  237  A    between atoms: _606  and  _607
REMARK  238  A    between atoms: _609  and  _611
REMARK  239  A    between atoms: _611  and  _612
REMARK  240  A    between atoms: _611  and  _614
REMARK  241  A    between atoms: _617  and  _619
REMARK  242  A    between atoms: _619  and  _620
REMARK  243  A    between atoms: _619  and  _622
REMARK  244  A    between atoms: _622  and  _623
REMARK  245  A    between atoms: _628  and  _630
REMARK  246  A    between atoms: _630  and  _631
REMARK  247  A    between atoms: _630  and  _633
REMARK  248  A    between atoms: _633  and  _634
REMARK  249  A    between atoms: _644  and  _646
REMARK  250  A    between atoms: _646  and  _647
REMARK  251  A    between atoms: _646  and  _649
REMARK  252  A    between atoms: _649  and  _650
REMARK  253  A    between atoms: _650  and  _651
REMARK  254  A    between atoms: _653  and  _655
REMARK  255  A    between atoms: _655  and  _656
REMARK  256  A    between atoms: _655  and  _658
REMARK  257  A    between atoms: _658  and  _659
REMARK  258  A    between atoms: _662  and  _664
REMARK  259  A    between atoms: _664  and  _665
REMARK  260  A    between atoms: _664  and  _667
REMARK  261  A    between atoms: _667  and  _668
REMARK  262  A    between atoms: _673  and  _675
REMARK  263  A    between atoms: _675  and  _676
REMARK  264  A    between atoms: _678  and  _680
REMARK  265  A    between atoms: _680  and  _681
REMARK  266  A    between atoms: _680  and  _683
REMARK  267  A    between atoms: _683  and  _684
REMARK  268  A    between atoms: _689  and  _690
REMARK  269  A    between atoms: _692  and  _694
REMARK  270  A    between atoms: _694  and  _695
REMARK  271  A    between atoms: _694  and  _697
REMARK  272  A    between atoms: _697  and  _698
REMARK  273  A    between atoms: _698  and  _699
REMARK  274  A    between atoms: _702  and  _704
REMARK  275  A    between atoms: _704  and  _705
REMARK  276  A    between atoms: _704  and  _707
REMARK  277  A    between atoms: _707  and  _708
REMARK                            x       y       z     vdW  Elec       q    Type
REMARK                         _______ _______ _______ _____ _____    ______ ____
ROOT
ATOM      1  O   HOH     1       5.004  61.484  61.379  0.00  0.00    +0.000 OA
ENDROOT
TORSDOF 0
REMARK  Name = ../refined-set-2016/1h22/1h22_pocket.pdb
REMARK  277 active torsions:
REMARK  status: ('A' for Active; 'I' for Inactive)
REMARK    1  A    between atoms: _1  and  _3
REMARK    2  A    between atoms: _3  and  _4
REMARK    3  A    between atoms: _3  and  _6
REMARK    4  A    between atoms: _6  and  _7
REMARK    5  A    between atoms: _7  and  _8
REMARK    6  A    between atoms: _13  and  _15
REMARK    7  A    between atoms: _15  and  _16
REMARK    8  A    between atoms: _15  and  _18
REMARK    9  A    between atoms: _18  and  _19
REMARK   10  A    between atoms: _24  and  _25
REMARK   11  A    between atoms: _27  and  _29
REMARK   12  A    between atoms: _29  and  _30
REMARK   13  A    between atoms: _29  and  _32
REMARK   14  A    between atoms: _35  and  _37
REMARK   15  A    between atoms: _37  and  _38
REMARK   16  A    between atoms: _37  and  _40
REMARK   17  A    between atoms: _40  and  _41
REMARK   18  A    between atoms: _44  and  _46
REMARK   19  A    between atoms: _46  and  _47
REMARK   20  A    between atoms: _46  and  _49
REMARK   21  A    between atoms: _49  and  _50
REMARK   22  A    between atoms: _50  and  _51
REMARK   23  A    between atoms: _54  and  _56
REMARK   24  A    between atoms: _56  and  _57
REMARK   25  A    between atoms: _56  and  _59
REMARK   26  A    between atoms: _59  and  _60
REMARK   27  A    between atoms: _60  and  _61
REMARK   28  A    between atoms: _66  and  _68
REMARK   29  A    between atoms: _68  and  _69
REMARK   30  A    between atoms: _68  and  _71
REMARK   31  A    between atoms: _71  and  _72
REMARK   32  A    between atoms: _78  and  _80
REMARK   33  A    between atoms: _80  and  _81
REMARK   34  A    between atoms: _83  and  _85
REMARK   35  A    between atoms: _85  and  _86
REMARK   36  A    between atoms: _85  and  _88
REMARK   37  A    between atoms: _88  and  _89
REMARK   38  A    between atoms: _91  and  _93
REMARK   39  A    between atoms: _93  and  _94
REMARK   40  A    between atoms: _93  and  _96
REMARK   41  A    between atoms: _96  and  _97
REMARK   42  A    between atoms: _97  and  _98
REMARK   43  A    between atoms: _100  and  _102
REMARK   44  A    between atoms: _102  and  _103
REMARK   45  A    between atoms: _102  and  _105
REMARK   46  A    between atoms: _105  and  _106
REMARK   47  A    between atoms: _116  and  _118
REMARK   48  A    between atoms: _118  and  _119
REMARK   49  A    between atoms: _118  and  _121
REMARK   50  A    between atoms: _121  and  _122
REMARK   51  A    between atoms: _128  and  _129
REMARK   52  A    between atoms: _134  and  _136
REMARK   53  A    between atoms: _136  and  _137
REMARK   54  A    between atoms: _136  and  _139
REMARK   55  A    between atoms: _139  and  _140
REMARK   56  A    between atoms: _150  and  _152
REMARK   57  A    between atoms: _152  and  _153
REMARK   58  A    between atoms: _152  and  _155
REMARK   59  A    between atoms: _155  and  _156
REMARK   60  A    between atoms: _159  and  _161
REMARK   61  A    between atoms: _161  and  _162
REMARK   62  A    between atoms: _161  and  _164
REMARK   63  A    between atoms: _164  and  _165
REMARK   64  A    between atoms: _170  and  _171
REMARK   65  A    between atoms: _173  and  _175
REMARK   66  A    between atoms: _175  and  _176
REMARK   67  A    between atoms: _178  and  _180
REMARK   68  A    between atoms: _180  and  _181
REMARK   69  A    between atoms: _183  and  _185
REMARK   70  A    between atoms: _185  and  _186
REMARK   71  A    between atoms: _188  and  _190
REMARK   72  A    between atoms: _190  and  _191
REMARK   73  A    between atoms: _190  and  _193
REMARK   74  A    between atoms: _193  and  _194
REMARK   75  A    between atoms: _200  and  _202
REMARK   76  A    between atoms: _202  and  _203
REMARK   77  A    between atoms: _202  and  _205
REMARK   78  A    between atoms: _205  and  _206
REMARK   79  A    between atoms: _211  and  _212
REMARK   80  A    between atoms: _214  and  _216
REMARK   81  A    between atoms: _216  and  _217
REMARK   82  A    between atoms: _216  and  _219
REMARK   83  A    between atoms: _219  and  _220
REMARK   84  A    between atoms: _222  and  _224
REMARK   85  A    between atoms: _224  and  _225
REMARK   86  A    between atoms: _227  and  _229
REMARK   87  A    between atoms: _229  and  _230
REMARK   88  A    between atoms: _229  and  _232
REMARK   89  A    between atoms: _232  and  _233
REMARK   90  A    between atoms: _235  and  _237
REMARK   91  A    between atoms: _237  and  _238
REMARK   92  A    between atoms: _237  and  _240
REMARK   93  A    between atoms: _240  and  _241
REMARK   94  A    between atoms: _243  and  _245
REMARK   95  A    between atoms: _245  and  _246
REMARK   96  A    between atoms: _245  and  _248
REMARK   97  A    between atoms: _248  and  _249
REMARK   98  A    between atoms: _252  and  _254
REMARK   99  A    between atoms: _254  and  _255
REMARK  100  A    between atoms: _254  and  _257
REMARK  101  A    between atoms: _257  and  _258
REMARK  102  A    between atoms: _261  and  _263
REMARK  103  A    between atoms: _263  and  _264
REMARK  104  A    between atoms: _263  and  _266
REMARK  105  A    between atoms: _269  and  _271
REMARK  106  A    between atoms: _271  and  _272
REMARK  107  A    between atoms: _271  and  _274
REMARK  108  A    between atoms: _274  and  _275
REMARK  109  A    between atoms: _280  and  _281
REMARK  110  A    between atoms: _283  and  _285
REMARK  111  A    between atoms: _285  and  _286
REMARK  112  A    between atoms: _285  and  _288
REMARK  113  A    between atoms: _288  and  _289
REMARK  114  A    between atoms: _294  and  _295
REMARK  115  A    between atoms: _297  and  _299
REMARK  116  A    between atoms: _299  and  _300
REMARK  117  A    between atoms: _299  and  _302
REMARK  118  A    between atoms: _305  and  _307
REMARK  119  A    between atoms: _307  and  _308
REMARK  120  A    between atoms: _307  and  _310
REMARK  121  A    between atoms: _310  and  _311
REMARK  122  A    between atoms: _311  and  _312
REMARK  123  A    between atoms: _315  and  _317
REMARK  124  A    between atoms: _317  and  _318
REMARK  125  A    between atoms: _317  and  _320
REMARK  126  A    between atoms: _320  and  _321
REMARK  127  A    between atoms: _323  and  _325
REMARK  128  A    between atoms: _325  and  _326
REMARK  129  A    between atoms: _329  and  _331
REMARK  130  A    between atoms: _331  and  _332
REMARK  131  A    between atoms: _334  and  _336
REMARK  132  A    between atoms: _336  and  _337
REMARK  133  A    between atoms: _336  and  _339
REMARK  134  A    between atoms: _339  and  _340
REMARK  135  A    between atoms: _342  and  _344
REMARK  136  A    between atoms: _344  and  _345
REMARK  137  A    between atoms: _344  and  _347
REMARK  138  A    between atoms: _347  and  _348
REMARK  139  A    between atoms: _358  and  _360
REMARK  140  A    between atoms: _360  and  _361
REMARK  141  A    between atoms: _360  and  _363
REMARK  142  A    between atoms: _363  and  _364
REMARK  143  A    between atoms: _364  and  _365
REMARK  144  A    between atoms: _368  and  _370
REMARK  145  A    between atoms: _370  and  _371
REMARK  146  A    between atoms: _370  and  _373
REMARK  147  A    between atoms: _373  and  _374
REMARK  148  A    between atoms: _384  and  _386
REMARK  149  A    between atoms: _386  and  _387
REMARK  150  A    between atoms: _386  and  _389
REMARK  151  A    between atoms: _389  and  _390
REMARK  152  A    between atoms: _395  and  _397
REMARK  153  A    between atoms: _397  and  _398
REMARK  154  A    between atoms: _397  and  _400
REMARK  155  A    between atoms: _400  and  _401
REMARK  156  A    between atoms: _404  and  _406
REMARK  157  A    between atoms: _406  and  _407
REMARK  158  A    between atoms: _406  and  _409
REMARK  159  A    between atoms: _409  and  _410
REMARK  160  A    between atoms: _416  and  _418
REMARK  161  A    between atoms: _418  and  _419
REMARK  162  A    between atoms: _418  and  _421
REMARK  163  A    between atoms: _421  and  _422
REMARK  164  A    between atoms: _425  and  _427
REMARK  165  A    between atoms: _427  and  _428
REMARK  166  A    between atoms: _427  and  _430
REMARK  167  A    between atoms: _430  and  _431
REMARK  168  A    between atoms: _433  and  _435
REMARK  169  A    between atoms: _435  and  _436
REMARK  170  A    between atoms: _435  and  _438
REMARK  171  A    between atoms: _438  and  _439
REMARK  172  A    between atoms: _442  and  _444
REMARK  173  A    between atoms: _444  and  _445
REMARK  174  A    between atoms: _444  and  _447
REMARK  175  A    between atoms: _447  and  _448
REMARK  176  A    between atoms: _454  and  _456
REMARK  177  A    between atoms: _456  and  _457
REMARK  178  A    between atoms: _456  and  _459
REMARK  179  A    between atoms: _459  and  _460
REMARK  180  A    between atoms: _460  and  _461
REMARK  181  A    between atoms: _461  and  _462
REMARK  182  A    between atoms: _471  and  _473
REMARK  183  A    between atoms: _473  and  _474
REMARK  184  A    between atoms: _473  and  _476
REMARK  185  A    between atoms: _476  and  _477
REMARK  186  A    between atoms: _483  and  _485
REMARK  187  A    between atoms: _485  and  _486
REMARK  188  A    between atoms: _485  and  _488
REMARK  189  A    between atoms: _488  and  _489
REMARK  190  A    between atoms: _491  and  _493
REMARK  191  A    between atoms: _493  and  _494
REMARK  192  A    between atoms: _493  and  _496
REMARK  193  A    between atoms: _496  and  _497
REMARK  194  A    between atoms: _502  and  _504
REMARK  195  A    between atoms: _504  and  _505
REMARK  196  A    between atoms: _504  and  _507
REMARK  197  A    between atoms: _507  and  _508
REMARK  198  A    between atoms: _508  and  _509
REMARK  199  A    between atoms: _512  and  _514
REMARK  200  A    between atoms: _514  and  _515
REMARK  201  A    between atoms: _517  and  _519
REMARK  202  A    between atoms: _519  and  _520
REMARK  203  A    between atoms: _519  and  _522
REMARK  204  A    between atoms: _522  and  _523
REMARK  205  A    between atoms: _525  and  _527
REMARK  206  A    between atoms: _527  and  _528
REMARK  207  A    between atoms: _527  and  _530
REMARK  208  A    between atoms: _530  and  _531
REMARK  209  A    between atoms: _537  and  _539
REMARK  210  A    between atoms: _539  and  _540
REMARK  211  A    between atoms: _539  and  _542
REMARK  212  A    between atoms: _542  and  _543
REMARK  213  A    between atoms: _549  and  _551
REMARK  214  A    between atoms: _551  and  _552
REMARK  215  A    between atoms: _551  and  _554
REMARK  216  A    between atoms: _554  and  _555
REMARK  217  A    between atoms: _558  and  _560
REMARK  218  A    between atoms: _560  and  _561
REMARK  219  A    between atoms: _560  and  _563
REMARK  220  A    between atoms: _563  and  _564
REMARK  221  A    between atoms: _567  and  _569
REMARK  222  A    between atoms: _569  and  _570
REMARK  223  A    between atoms: _569  and  _572
REMARK  224  A    between atoms: _572  and  _573
REMARK  225  A    between atoms: _578  and  _579
REMARK  226  A    between atoms: _581  and  _583
REMARK  227  A    between atoms: _583  and  _584
REMARK  228  A    between atoms: _586  and  _588
REMARK  229  A    between atoms: _588  and  _589
REMARK  230  A    between atoms: _592  and  _594
REMARK  231  A    between atoms: _594  and  _595
REMARK  232  A    between atoms: _594  and  _597
REMARK  233  A    between atoms: _597  and  _598
REMARK  234  A    between atoms: _601  and  _603
REMARK  235  A    between atoms: _603  and  _604
REMARK  236  A    between atoms: _603  and  _606
REMARK  237  A    between atoms: _606  and  _607
REMARK  238  A    between atoms: _609  and  _611
REMARK  239  A    between atoms: _611  and  _612
REMARK  240  A    between atoms: _611  and  _614
REMARK  241  A    between atoms: _617  and  _619
REMARK  242  A    between atoms: _619  and  _620
REMARK  243  A    between atoms: _619  and  _622
REMARK  244  A    between atoms: _622  and  _623
REMARK  245  A    between atoms: _628  and  _630
REMARK  246  A    between atoms: _630  and  _631
REMARK  247  A    between atoms: _630  and  _633
REMARK  248  A    between atoms: _633  and  _634
REMARK  249  A    between atoms: _644  and  _646
REMARK  250  A    between atoms: _646  and  _647
REMARK  251  A    between atoms: _646  and  _649
REMARK  252  A    between atoms: _649  and  _650
REMARK  253  A    between atoms: _650  and  _651
REMARK  254  A    between atoms: _653  and  _655
REMARK  255  A    between atoms: _655  and  _656
REMARK  256  A    between atoms: _655  and  _658
REMARK  257  A    between atoms: _658  and  _659
REMARK  258  A    between atoms: _662  and  _664
REMARK  259  A    between atoms: _664  and  _665
REMARK  260  A    between atoms: _664  and  _667
REMARK  261  A    between atoms: _667  and  _668
REMARK  262  A    between atoms: _673  and  _675
REMARK  263  A    between atoms: _675  and  _676
REMARK  264  A    between atoms: _678  and  _680
REMARK  265  A    between atoms: _680  and  _681
REMARK  266  A    between atoms: _680  and  _683
REMARK  267  A    between atoms: _683  and  _684
REMARK  268  A    between atoms: _689  and  _690
REMARK  269  A    between atoms: _692  and  _694
REMARK  270  A    between atoms: _694  and  _695
REMARK  271  A    between atoms: _694  and  _697
REMARK  272  A    between atoms: _697  and  _698
REMARK  273  A    between atoms: _698  and  _699
REMARK  274  A    between atoms: _702  and  _704
REMARK  275  A    between atoms: _704  and  _705
REMARK  276  A    between atoms: _704  and  _707
REMARK  277  A    between atoms: _707  and  _708
REMARK                            x       y       z     vdW  Elec       q    Type
REMARK                         _______ _______ _______ _____ _____    ______ ____
ROOT
ATOM      1  O   HOH     1      -7.327  60.476  72.264  0.00  0.00    +0.000 OA
ENDROOT
TORSDOF 0
REMARK  Name = ../refined-set-2016/1h22/1h22_pocket.pdb
REMARK  277 active torsions:
REMARK  status: ('A' for Active; 'I' for Inactive)
REMARK    1  A    between atoms: _1  and  _3
REMARK    2  A    between atoms: _3  and  _4
REMARK    3  A    between atoms: _3  and  _6
REMARK    4  A    between atoms: _6  and  _7
REMARK    5  A    between atoms: _7  and  _8
REMARK    6  A    between atoms: _13  and  _15
REMARK    7  A    between atoms: _15  and  _16
REMARK    8  A    between atoms: _15  and  _18
REMARK    9  A    between atoms: _18  and  _19
REMARK   10  A    between atoms: _24  and  _25
REMARK   11  A    between atoms: _27  and  _29
REMARK   12  A    between atoms: _29  and  _30
REMARK   13  A    between atoms: _29  and  _32
REMARK   14  A    between atoms: _35  and  _37
REMARK   15  A    between atoms: _37  and  _38
REMARK   16  A    between atoms: _37  and  _40
REMARK   17  A    between atoms: _40  and  _41
REMARK   18  A    between atoms: _44  and  _46
REMARK   19  A    between atoms: _46  and  _47
REMARK   20  A    between atoms: _46  and  _49
REMARK   21  A    between atoms: _49  and  _50
REMARK   22  A    between atoms: _50  and  _51
REMARK   23  A    between atoms: _54  and  _56
REMARK   24  A    between atoms: _56  and  _57
REMARK   25  A    between atoms: _56  and  _59
REMARK   26  A    between atoms: _59  and  _60
REMARK   27  A    between atoms: _60  and  _61
REMARK   28  A    between atoms: _66  and  _68
REMARK   29  A    between atoms: _68  and  _69
REMARK   30  A    between atoms: _68  and  _71
REMARK   31  A    between atoms: _71  and  _72
REMARK   32  A    between atoms: _78  and  _80
REMARK   33  A    between atoms: _80  and  _81
REMARK   34  A    between atoms: _83  and  _85
REMARK   35  A    between atoms: _85  and  _86
REMARK   36  A    between atoms: _85  and  _88
REMARK   37  A    between atoms: _88  and  _89
REMARK   38  A    between atoms: _91  and  _93
REMARK   39  A    between atoms: _93  and  _94
REMARK   40  A    between atoms: _93  and  _96
REMARK   41  A    between atoms: _96  and  _97
REMARK   42  A    between atoms: _97  and  _98
REMARK   43  A    between atoms: _100  and  _102
REMARK   44  A    between atoms: _102  and  _103
REMARK   45  A    between atoms: _102  and  _105
REMARK   46  A    between atoms: _105  and  _106
REMARK   47  A    between atoms: _116  and  _118
REMARK   48  A    between atoms: _118  and  _119
REMARK   49  A    between atoms: _118  and  _121
REMARK   50  A    between atoms: _121  and  _122
REMARK   51  A    between atoms: _128  and  _129
REMARK   52  A    between atoms: _134  and  _136
REMARK   53  A    between atoms: _136  and  _137
REMARK   54  A    between atoms: _136  and  _139
REMARK   55  A    between atoms: _139  and  _140
REMARK   56  A    between atoms: _150  and  _152
REMARK   57  A    between atoms: _152  and  _153
REMARK   58  A    between atoms: _152  and  _155
REMARK   59  A    between atoms: _155  and  _156
REMARK   60  A    between atoms: _159  and  _161
REMARK   61  A    between atoms: _161  and  _162
REMARK   62  A    between atoms: _161  and  _164
REMARK   63  A    between atoms: _164  and  _165
REMARK   64  A    between atoms: _170  and  _171
REMARK   65  A    between atoms: _173  and  _175
REMARK   66  A    between atoms: _175  and  _176
REMARK   67  A    between atoms: _178  and  _180
REMARK   68  A    between atoms: _180  and  _181
REMARK   69  A    between atoms: _183  and  _185
REMARK   70  A    between atoms: _185  and  _186
REMARK   71  A    between atoms: _188  and  _190
REMARK   72  A    between atoms: _190  and  _191
REMARK   73  A    between atoms: _190  and  _193
REMARK   74  A    between atoms: _193  and  _194
REMARK   75  A    between atoms: _200  and  _202
REMARK   76  A    between atoms: _202  and  _203
REMARK   77  A    between atoms: _202  and  _205
REMARK   78  A    between atoms: _205  and  _206
REMARK   79  A    between atoms: _211  and  _212
REMARK   80  A    between atoms: _214  and  _216
REMARK   81  A    between atoms: _216  and  _217
REMARK   82  A    between atoms: _216  and  _219
REMARK   83  A    between atoms: _219  and  _220
REMARK   84  A    between atoms: _222  and  _224
REMARK   85  A    between atoms: _224  and  _225
REMARK   86  A    between atoms: _227  and  _229
REMARK   87  A    between atoms: _229  and  _230
REMARK   88  A    between atoms: _229  and  _232
REMARK   89  A    between atoms: _232  and  _233
REMARK   90  A    between atoms: _235  and  _237
REMARK   91  A    between atoms: _237  and  _238
REMARK   92  A    between atoms: _237  and  _240
REMARK   93  A    between atoms: _240  and  _241
REMARK   94  A    between atoms: _243  and  _245
REMARK   95  A    between atoms: _245  and  _246
REMARK   96  A    between atoms: _245  and  _248
REMARK   97  A    between atoms: _248  and  _249
REMARK   98  A    between atoms: _252  and  _254
REMARK   99  A    between atoms: _254  and  _255
REMARK  100  A    between atoms: _254  and  _257
REMARK  101  A    between atoms: _257  and  _258
REMARK  102  A    between atoms: _261  and  _263
REMARK  103  A    between atoms: _263  and  _264
REMARK  104  A    between atoms: _263  and  _266
REMARK  105  A    between atoms: _269  and  _271
REMARK  106  A    between atoms: _271  and  _272
REMARK  107  A    between atoms: _271  and  _274
REMARK  108  A    between atoms: _274  and  _275
REMARK  109  A    between atoms: _280  and  _281
REMARK  110  A    between atoms: _283  and  _285
REMARK  111  A    between atoms: _285  and  _286
REMARK  112  A    between atoms: _285  and  _288
REMARK  113  A    between atoms: _288  and  _289
REMARK  114  A    between atoms: _294  and  _295
REMARK  115  A    between atoms: _297  and  _299
REMARK  116  A    between atoms: _299  and  _300
REMARK  117  A    between atoms: _299  and  _302
REMARK  118  A    between atoms: _305  and  _307
REMARK  119  A    between atoms: _307  and  _308
REMARK  120  A    between atoms: _307  and  _310
REMARK  121  A    between atoms: _310  and  _311
REMARK  122  A    between atoms: _311  and  _312
REMARK  123  A    between atoms: _315  and  _317
REMARK  124  A    between atoms: _317  and  _318
REMARK  125  A    between atoms: _317  and  _320
REMARK  126  A    between atoms: _320  and  _321
REMARK  127  A    between atoms: _323  and  _325
REMARK  128  A    between atoms: _325  and  _326
REMARK  129  A    between atoms: _329  and  _331
REMARK  130  A    between atoms: _331  and  _332
REMARK  131  A    between atoms: _334  and  _336
REMARK  132  A    between atoms: _336  and  _337
REMARK  133  A    between atoms: _336  and  _339
REMARK  134  A    between atoms: _339  and  _340
REMARK  135  A    between atoms: _342  and  _344
REMARK  136  A    between atoms: _344  and  _345
REMARK  137  A    between atoms: _344  and  _347
REMARK  138  A    between atoms: _347  and  _348
REMARK  139  A    between atoms: _358  and  _360
REMARK  140  A    between atoms: _360  and  _361
REMARK  141  A    between atoms: _360  and  _363
REMARK  142  A    between atoms: _363  and  _364
REMARK  143  A    between atoms: _364  and  _365
REMARK  144  A    between atoms: _368  and  _370
REMARK  145  A    between atoms: _370  and  _371
REMARK  146  A    between atoms: _370  and  _373
REMARK  147  A    between atoms: _373  and  _374
REMARK  148  A    between atoms: _384  and  _386
REMARK  149  A    between atoms: _386  and  _387
REMARK  150  A    between atoms: _386  and  _389
REMARK  151  A    between atoms: _389  and  _390
REMARK  152  A    between atoms: _395  and  _397
REMARK  153  A    between atoms: _397  and  _398
REMARK  154  A    between atoms: _397  and  _400
REMARK  155  A    between atoms: _400  and  _401
REMARK  156  A    between atoms: _404  and  _406
REMARK  157  A    between atoms: _406  and  _407
REMARK  158  A    between atoms: _406  and  _409
REMARK  159  A    between atoms: _409  and  _410
REMARK  160  A    between atoms: _416  and  _418
REMARK  161  A    between atoms: _418  and  _419
REMARK  162  A    between atoms: _418  and  _421
REMARK  163  A    between atoms: _421  and  _422
REMARK  164  A    between atoms: _425  and  _427
REMARK  165  A    between atoms: _427  and  _428
REMARK  166  A    between atoms: _427  and  _430
REMARK  167  A    between atoms: _430  and  _431
REMARK  168  A    between atoms: _433  and  _435
REMARK  169  A    between atoms: _435  and  _436
REMARK  170  A    between atoms: _435  and  _438
REMARK  171  A    between atoms: _438  and  _439
REMARK  172  A    between atoms: _442  and  _444
REMARK  173  A    between atoms: _444  and  _445
REMARK  174  A    between atoms: _444  and  _447
REMARK  175  A    between atoms: _447  and  _448
REMARK  176  A    between atoms: _454  and  _456
REMARK  177  A    between atoms: _456  and  _457
REMARK  178  A    between atoms: _456  and  _459
REMARK  179  A    between atoms: _459  and  _460
REMARK  180  A    between atoms: _460  and  _461
REMARK  181  A    between atoms: _461  and  _462
REMARK  182  A    between atoms: _471  and  _473
REMARK  183  A    between atoms: _473  and  _474
REMARK  184  A    between atoms: _473  and  _476
REMARK  185  A    between atoms: _476  and  _477
REMARK  186  A    between atoms: _483  and  _485
REMARK  187  A    between atoms: _485  and  _486
REMARK  188  A    between atoms: _485  and  _488
REMARK  189  A    between atoms: _488  and  _489
REMARK  190  A    between atoms: _491  and  _493
REMARK  191  A    between atoms: _493  and  _494
REMARK  192  A    between atoms: _493  and  _496
REMARK  193  A    between atoms: _496  and  _497
REMARK  194  A    between atoms: _502  and  _504
REMARK  195  A    between atoms: _504  and  _505
REMARK  196  A    between atoms: _504  and  _507
REMARK  197  A    between atoms: _507  and  _508
REMARK  198  A    between atoms: _508  and  _509
REMARK  199  A    between atoms: _512  and  _514
REMARK  200  A    between atoms: _514  and  _515
REMARK  201  A    between atoms: _517  and  _519
REMARK  202  A    between atoms: _519  and  _520
REMARK  203  A    between atoms: _519  and  _522
REMARK  204  A    between atoms: _522  and  _523
REMARK  205  A    between atoms: _525  and  _527
REMARK  206  A    between atoms: _527  and  _528
REMARK  207  A    between atoms: _527  and  _530
REMARK  208  A    between atoms: _530  and  _531
REMARK  209  A    between atoms: _537  and  _539
REMARK  210  A    between atoms: _539  and  _540
REMARK  211  A    between atoms: _539  and  _542
REMARK  212  A    between atoms: _542  and  _543
REMARK  213  A    between atoms: _549  and  _551
REMARK  214  A    between atoms: _551  and  _552
REMARK  215  A    between atoms: _551  and  _554
REMARK  216  A    between atoms: _554  and  _555
REMARK  217  A    between atoms: _558  and  _560
REMARK  218  A    between atoms: _560  and  _561
REMARK  219  A    between atoms: _560  and  _563
REMARK  220  A    between atoms: _563  and  _564
REMARK  221  A    between atoms: _567  and  _569
REMARK  222  A    between atoms: _569  and  _570
REMARK  223  A    between atoms: _569  and  _572
REMARK  224  A    between atoms: _572  and  _573
REMARK  225  A    between atoms: _578  and  _579
REMARK  226  A    between atoms: _581  and  _583
REMARK  227  A    between atoms: _583  and  _584
REMARK  228  A    between atoms: _586  and  _588
REMARK  229  A    between atoms: _588  and  _589
REMARK  230  A    between atoms: _592  and  _594
REMARK  231  A    between atoms: _594  and  _595
REMARK  232  A    between atoms: _594  and  _597
REMARK  233  A    between atoms: _597  and  _598
REMARK  234  A    between atoms: _601  and  _603
REMARK  235  A    between atoms: _603  and  _604
REMARK  236  A    between atoms: _603  and  _606
REMARK  237  A    between atoms: _606  and  _607
REMARK  238  A    between atoms: _609  and  _611
REMARK  239  A    between atoms: _611  and  _612
REMARK  240  A    between atoms: _611  and  _614
REMARK  241  A    between atoms: _617  and  _619
REMARK  242  A    between atoms: _619  and  _620
REMARK  243  A    between atoms: _619  and  _622
REMARK  244  A    between atoms: _622  and  _623
REMARK  245  A    between atoms: _628  and  _630
REMARK  246  A    between atoms: _630  and  _631
REMARK  247  A    between atoms: _630  and  _633
REMARK  248  A    between atoms: _633  and  _634
REMARK  249  A    between atoms: _644  and  _646
REMARK  250  A    between atoms: _646  and  _647
REMARK  251  A    between atoms: _646  and  _649
REMARK  252  A    between atoms: _649  and  _650
REMARK  253  A    between atoms: _650  and  _651
REMARK  254  A    between atoms: _653  and  _655
REMARK  255  A    between atoms: _655  and  _656
REMARK  256  A    between atoms: _655  and  _658
REMARK  257  A    between atoms: _658  and  _659
REMARK  258  A    between atoms: _662  and  _664
REMARK  259  A    between atoms: _664  and  _665
REMARK  260  A    between atoms: _664  and  _667
REMARK  261  A    between atoms: _667  and  _668
REMARK  262  A    between atoms: _673  and  _675
REMARK  263  A    between atoms: _675  and  _676
REMARK  264  A    between atoms: _678  and  _680
REMARK  265  A    between atoms: _680  and  _681
REMARK  266  A    between atoms: _680  and  _683
REMARK  267  A    between atoms: _683  and  _684
REMARK  268  A    between atoms: _689  and  _690
REMARK  269  A    between atoms: _692  and  _694
REMARK  270  A    between atoms: _694  and  _695
REMARK  271  A    between atoms: _694  and  _697
REMARK  272  A    between atoms: _697  and  _698
REMARK  273  A    between atoms: _698  and  _699
REMARK  274  A    between atoms: _702  and  _704
REMARK  275  A    between atoms: _704  and  _705
REMARK  276  A    between atoms: _704  and  _707
REMARK  277  A    between atoms: _707  and  _708
REMARK                            x       y       z     vdW  Elec       q    Type
REMARK                         _______ _______ _______ _____ _____    ______ ____
ROOT
ATOM      1  O   HOH     1      -2.173  57.350  66.794  0.00  0.00    +0.000 OA
ENDROOT
TORSDOF 0
REMARK  Name = ../refined-set-2016/1h22/1h22_pocket.pdb
REMARK  277 active torsions:
REMARK  status: ('A' for Active; 'I' for Inactive)
REMARK    1  A    between atoms: _1  and  _3
REMARK    2  A    between atoms: _3  and  _4
REMARK    3  A    between atoms: _3  and  _6
REMARK    4  A    between atoms: _6  and  _7
REMARK    5  A    between atoms: _7  and  _8
REMARK    6  A    between atoms: _13  and  _15
REMARK    7  A    between atoms: _15  and  _16
REMARK    8  A    between atoms: _15  and  _18
REMARK    9  A    between atoms: _18  and  _19
REMARK   10  A    between atoms: _24  and  _25
REMARK   11  A    between atoms: _27  and  _29
REMARK   12  A    between atoms: _29  and  _30
REMARK   13  A    between atoms: _29  and  _32
REMARK   14  A    between atoms: _35  and  _37
REMARK   15  A    between atoms: _37  and  _38
REMARK   16  A    between atoms: _37  and  _40
REMARK   17  A    between atoms: _40  and  _41
REMARK   18  A    between atoms: _44  and  _46
REMARK   19  A    between atoms: _46  and  _47
REMARK   20  A    between atoms: _46  and  _49
REMARK   21  A    between atoms: _49  and  _50
REMARK   22  A    between atoms: _50  and  _51
REMARK   23  A    between atoms: _54  and  _56
REMARK   24  A    between atoms: _56  and  _57
REMARK   25  A    between atoms: _56  and  _59
REMARK   26  A    between atoms: _59  and  _60
REMARK   27  A    between atoms: _60  and  _61
REMARK   28  A    between atoms: _66  and  _68
REMARK   29  A    between atoms: _68  and  _69
REMARK   30  A    between atoms: _68  and  _71
REMARK   31  A    between atoms: _71  and  _72
REMARK   32  A    between atoms: _78  and  _80
REMARK   33  A    between atoms: _80  and  _81
REMARK   34  A    between atoms: _83  and  _85
REMARK   35  A    between atoms: _85  and  _86
REMARK   36  A    between atoms: _85  and  _88
REMARK   37  A    between atoms: _88  and  _89
REMARK   38  A    between atoms: _91  and  _93
REMARK   39  A    between atoms: _93  and  _94
REMARK   40  A    between atoms: _93  and  _96
REMARK   41  A    between atoms: _96  and  _97
REMARK   42  A    between atoms: _97  and  _98
REMARK   43  A    between atoms: _100  and  _102
REMARK   44  A    between atoms: _102  and  _103
REMARK   45  A    between atoms: _102  and  _105
REMARK   46  A    between atoms: _105  and  _106
REMARK   47  A    between atoms: _116  and  _118
REMARK   48  A    between atoms: _118  and  _119
REMARK   49  A    between atoms: _118  and  _121
REMARK   50  A    between atoms: _121  and  _122
REMARK   51  A    between atoms: _128  and  _129
REMARK   52  A    between atoms: _134  and  _136
REMARK   53  A    between atoms: _136  and  _137
REMARK   54  A    between atoms: _136  and  _139
REMARK   55  A    between atoms: _139  and  _140
REMARK   56  A    between atoms: _150  and  _152
REMARK   57  A    between atoms: _152  and  _153
REMARK   58  A    between atoms: _152  and  _155
REMARK   59  A    between atoms: _155  and  _156
REMARK   60  A    between atoms: _159  and  _161
REMARK   61  A    between atoms: _161  and  _162
REMARK   62  A    between atoms: _161  and  _164
REMARK   63  A    between atoms: _164  and  _165
REMARK   64  A    between atoms: _170  and  _171
REMARK   65  A    between atoms: _173  and  _175
REMARK   66  A    between atoms: _175  and  _176
REMARK   67  A    between atoms: _178  and  _180
REMARK   68  A    between atoms: _180  and  _181
REMARK   69  A    between atoms: _183  and  _185
REMARK   70  A    between atoms: _185  and  _186
REMARK   71  A    between atoms: _188  and  _190
REMARK   72  A    between atoms: _190  and  _191
REMARK   73  A    between atoms: _190  and  _193
REMARK   74  A    between atoms: _193  and  _194
REMARK   75  A    between atoms: _200  and  _202
REMARK   76  A    between atoms: _202  and  _203
REMARK   77  A    between atoms: _202  and  _205
REMARK   78  A    between atoms: _205  and  _206
REMARK   79  A    between atoms: _211  and  _212
REMARK   80  A    between atoms: _214  and  _216
REMARK   81  A    between atoms: _216  and  _217
REMARK   82  A    between atoms: _216  and  _219
REMARK   83  A    between atoms: _219  and  _220
REMARK   84  A    between atoms: _222  and  _224
REMARK   85  A    between atoms: _224  and  _225
REMARK   86  A    between atoms: _227  and  _229
REMARK   87  A    between atoms: _229  and  _230
REMARK   88  A    between atoms: _229  and  _232
REMARK   89  A    between atoms: _232  and  _233
REMARK   90  A    between atoms: _235  and  _237
REMARK   91  A    between atoms: _237  and  _238
REMARK   92  A    between atoms: _237  and  _240
REMARK   93  A    between atoms: _240  and  _241
REMARK   94  A    between atoms: _243  and  _245
REMARK   95  A    between atoms: _245  and  _246
REMARK   96  A    between atoms: _245  and  _248
REMARK   97  A    between atoms: _248  and  _249
REMARK   98  A    between atoms: _252  and  _254
REMARK   99  A    between atoms: _254  and  _255
REMARK  100  A    between atoms: _254  and  _257
REMARK  101  A    between atoms: _257  and  _258
REMARK  102  A    between atoms: _261  and  _263
REMARK  103  A    between atoms: _263  and  _264
REMARK  104  A    between atoms: _263  and  _266
REMARK  105  A    between atoms: _269  and  _271
REMARK  106  A    between atoms: _271  and  _272
REMARK  107  A    between atoms: _271  and  _274
REMARK  108  A    between atoms: _274  and  _275
REMARK  109  A    between atoms: _280  and  _281
REMARK  110  A    between atoms: _283  and  _285
REMARK  111  A    between atoms: _285  and  _286
REMARK  112  A    between atoms: _285  and  _288
REMARK  113  A    between atoms: _288  and  _289
REMARK  114  A    between atoms: _294  and  _295
REMARK  115  A    between atoms: _297  and  _299
REMARK  116  A    between atoms: _299  and  _300
REMARK  117  A    between atoms: _299  and  _302
REMARK  118  A    between atoms: _305  and  _307
REMARK  119  A    between atoms: _307  and  _308
REMARK  120  A    between atoms: _307  and  _310
REMARK  121  A    between atoms: _310  and  _311
REMARK  122  A    between atoms: _311  and  _312
REMARK  123  A    between atoms: _315  and  _317
REMARK  124  A    between atoms: _317  and  _318
REMARK  125  A    between atoms: _317  and  _320
REMARK  126  A    between atoms: _320  and  _321
REMARK  127  A    between atoms: _323  and  _325
REMARK  128  A    between atoms: _325  and  _326
REMARK  129  A    between atoms: _329  and  _331
REMARK  130  A    between atoms: _331  and  _332
REMARK  131  A    between atoms: _334  and  _336
REMARK  132  A    between atoms: _336  and  _337
REMARK  133  A    between atoms: _336  and  _339
REMARK  134  A    between atoms: _339  and  _340
REMARK  135  A    between atoms: _342  and  _344
REMARK  136  A    between atoms: _344  and  _345
REMARK  137  A    between atoms: _344  and  _347
REMARK  138  A    between atoms: _347  and  _348
REMARK  139  A    between atoms: _358  and  _360
REMARK  140  A    between atoms: _360  and  _361
REMARK  141  A    between atoms: _360  and  _363
REMARK  142  A    between atoms: _363  and  _364
REMARK  143  A    between atoms: _364  and  _365
REMARK  144  A    between atoms: _368  and  _370
REMARK  145  A    between atoms: _370  and  _371
REMARK  146  A    between atoms: _370  and  _373
REMARK  147  A    between atoms: _373  and  _374
REMARK  148  A    between atoms: _384  and  _386
REMARK  149  A    between atoms: _386  and  _387
REMARK  150  A    between atoms: _386  and  _389
REMARK  151  A    between atoms: _389  and  _390
REMARK  152  A    between atoms: _395  and  _397
REMARK  153  A    between atoms: _397  and  _398
REMARK  154  A    between atoms: _397  and  _400
REMARK  155  A    between atoms: _400  and  _401
REMARK  156  A    between atoms: _404  and  _406
REMARK  157  A    between atoms: _406  and  _407
REMARK  158  A    between atoms: _406  and  _409
REMARK  159  A    between atoms: _409  and  _410
REMARK  160  A    between atoms: _416  and  _418
REMARK  161  A    between atoms: _418  and  _419
REMARK  162  A    between atoms: _418  and  _421
REMARK  163  A    between atoms: _421  and  _422
REMARK  164  A    between atoms: _425  and  _427
REMARK  165  A    between atoms: _427  and  _428
REMARK  166  A    between atoms: _427  and  _430
REMARK  167  A    between atoms: _430  and  _431
REMARK  168  A    between atoms: _433  and  _435
REMARK  169  A    between atoms: _435  and  _436
REMARK  170  A    between atoms: _435  and  _438
REMARK  171  A    between atoms: _438  and  _439
REMARK  172  A    between atoms: _442  and  _444
REMARK  173  A    between atoms: _444  and  _445
REMARK  174  A    between atoms: _444  and  _447
REMARK  175  A    between atoms: _447  and  _448
REMARK  176  A    between atoms: _454  and  _456
REMARK  177  A    between atoms: _456  and  _457
REMARK  178  A    between atoms: _456  and  _459
REMARK  179  A    between atoms: _459  and  _460
REMARK  180  A    between atoms: _460  and  _461
REMARK  181  A    between atoms: _461  and  _462
REMARK  182  A    between atoms: _471  and  _473
REMARK  183  A    between atoms: _473  and  _474
REMARK  184  A    between atoms: _473  and  _476
REMARK  185  A    between atoms: _476  and  _477
REMARK  186  A    between atoms: _483  and  _485
REMARK  187  A    between atoms: _485  and  _486
REMARK  188  A    between atoms: _485  and  _488
REMARK  189  A    between atoms: _488  and  _489
REMARK  190  A    between atoms: _491  and  _493
REMARK  191  A    between atoms: _493  and  _494
REMARK  192  A    between atoms: _493  and  _496
REMARK  193  A    between atoms: _496  and  _497
REMARK  194  A    between atoms: _502  and  _504
REMARK  195  A    between atoms: _504  and  _505
REMARK  196  A    between atoms: _504  and  _507
REMARK  197  A    between atoms: _507  and  _508
REMARK  198  A    between atoms: _508  and  _509
REMARK  199  A    between atoms: _512  and  _514
REMARK  200  A    between atoms: _514  and  _515
REMARK  201  A    between atoms: _517  and  _519
REMARK  202  A    between atoms: _519  and  _520
REMARK  203  A    between atoms: _519  and  _522
REMARK  204  A    between atoms: _522  and  _523
REMARK  205  A    between atoms: _525  and  _527
REMARK  206  A    between atoms: _527  and  _528
REMARK  207  A    between atoms: _527  and  _530
REMARK  208  A    between atoms: _530  and  _531
REMARK  209  A    between atoms: _537  and  _539
REMARK  210  A    between atoms: _539  and  _540
REMARK  211  A    between atoms: _539  and  _542
REMARK  212  A    between atoms: _542  and  _543
REMARK  213  A    between atoms: _549  and  _551
REMARK  214  A    between atoms: _551  and  _552
REMARK  215  A    between atoms: _551  and  _554
REMARK  216  A    between atoms: _554  and  _555
REMARK  217  A    between atoms: _558  and  _560
REMARK  218  A    between atoms: _560  and  _561
REMARK  219  A    between atoms: _560  and  _563
REMARK  220  A    between atoms: _563  and  _564
REMARK  221  A    between atoms: _567  and  _569
REMARK  222  A    between atoms: _569  and  _570
REMARK  223  A    between atoms: _569  and  _572
REMARK  224  A    between atoms: _572  and  _573
REMARK  225  A    between atoms: _578  and  _579
REMARK  226  A    between atoms: _581  and  _583
REMARK  227  A    between atoms: _583  and  _584
REMARK  228  A    between atoms: _586  and  _588
REMARK  229  A    between atoms: _588  and  _589
REMARK  230  A    between atoms: _592  and  _594
REMARK  231  A    between atoms: _594  and  _595
REMARK  232  A    between atoms: _594  and  _597
REMARK  233  A    between atoms: _597  and  _598
REMARK  234  A    between atoms: _601  and  _603
REMARK  235  A    between atoms: _603  and  _604
REMARK  236  A    between atoms: _603  and  _606
REMARK  237  A    between atoms: _606  and  _607
REMARK  238  A    between atoms: _609  and  _611
REMARK  239  A    between atoms: _611  and  _612
REMARK  240  A    between atoms: _611  and  _614
REMARK  241  A    between atoms: _617  and  _619
REMARK  242  A    between atoms: _619  and  _620
REMARK  243  A    between atoms: _619  and  _622
REMARK  244  A    between atoms: _622  and  _623
REMARK  245  A    between atoms: _628  and  _630
REMARK  246  A    between atoms: _630  and  _631
REMARK  247  A    between atoms: _630  and  _633
REMARK  248  A    between atoms: _633  and  _634
REMARK  249  A    between atoms: _644  and  _646
REMARK  250  A    between atoms: _646  and  _647
REMARK  251  A    between atoms: _646  and  _649
REMARK  252  A    between atoms: _649  and  _650
REMARK  253  A    between atoms: _650  and  _651
REMARK  254  A    between atoms: _653  and  _655
REMARK  255  A    between atoms: _655  and  _656
REMARK  256  A    between atoms: _655  and  _658
REMARK  257  A    between atoms: _658  and  _659
REMARK  258  A    between atoms: _662  and  _664
REMARK  259  A    between atoms: _664  and  _665
REMARK  260  A    between atoms: _664  and  _667
REMARK  261  A    between atoms: _667  and  _668
REMARK  262  A    between atoms: _673  and  _675
REMARK  263  A    between atoms: _675  and  _676
REMARK  264  A    between atoms: _678  and  _680
REMARK  265  A    between atoms: _680  and  _681
REMARK  266  A    between atoms: _680  and  _683
REMARK  267  A    between atoms: _683  and  _684
REMARK  268  A    between atoms: _689  and  _690
REMARK  269  A    between atoms: _692  and  _694
REMARK  270  A    between atoms: _694  and  _695
REMARK  271  A    between atoms: _694  and  _697
REMARK  272  A    between atoms: _697  and  _698
REMARK  273  A    between atoms: _698  and  _699
REMARK  274  A    between atoms: _702  and  _704
REMARK  275  A    between atoms: _704  and  _705
REMARK  276  A    between atoms: _704  and  _707
REMARK  277  A    between atoms: _707  and  _708
REMARK                            x       y       z     vdW  Elec       q    Type
REMARK                         _______ _______ _______ _____ _____    ______ ____
ROOT
ATOM      1  O   HOH     1      -0.911  53.320  74.174  0.00  0.00    +0.000 OA
ENDROOT
TORSDOF 0
REMARK  Name = ../refined-set-2016/1h22/1h22_pocket.pdb
REMARK  277 active torsions:
REMARK  status: ('A' for Active; 'I' for Inactive)
REMARK    1  A    between atoms: _1  and  _3
REMARK    2  A    between atoms: _3  and  _4
REMARK    3  A    between atoms: _3  and  _6
REMARK    4  A    between atoms: _6  and  _7
REMARK    5  A    between atoms: _7  and  _8
REMARK    6  A    between atoms: _13  and  _15
REMARK    7  A    between atoms: _15  and  _16
REMARK    8  A    between atoms: _15  and  _18
REMARK    9  A    between atoms: _18  and  _19
REMARK   10  A    between atoms: _24  and  _25
REMARK   11  A    between atoms: _27  and  _29
REMARK   12  A    between atoms: _29  and  _30
REMARK   13  A    between atoms: _29  and  _32
REMARK   14  A    between atoms: _35  and  _37
REMARK   15  A    between atoms: _37  and  _38
REMARK   16  A    between atoms: _37  and  _40
REMARK   17  A    between atoms: _40  and  _41
REMARK   18  A    between atoms: _44  and  _46
REMARK   19  A    between atoms: _46  and  _47
REMARK   20  A    between atoms: _46  and  _49
REMARK   21  A    between atoms: _49  and  _50
REMARK   22  A    between atoms: _50  and  _51
REMARK   23  A    between atoms: _54  and  _56
REMARK   24  A    between atoms: _56  and  _57
REMARK   25  A    between atoms: _56  and  _59
REMARK   26  A    between atoms: _59  and  _60
REMARK   27  A    between atoms: _60  and  _61
REMARK   28  A    between atoms: _66  and  _68
REMARK   29  A    between atoms: _68  and  _69
REMARK   30  A    between atoms: _68  and  _71
REMARK   31  A    between atoms: _71  and  _72
REMARK   32  A    between atoms: _78  and  _80
REMARK   33  A    between atoms: _80  and  _81
REMARK   34  A    between atoms: _83  and  _85
REMARK   35  A    between atoms: _85  and  _86
REMARK   36  A    between atoms: _85  and  _88
REMARK   37  A    between atoms: _88  and  _89
REMARK   38  A    between atoms: _91  and  _93
REMARK   39  A    between atoms: _93  and  _94
REMARK   40  A    between atoms: _93  and  _96
REMARK   41  A    between atoms: _96  and  _97
REMARK   42  A    between atoms: _97  and  _98
REMARK   43  A    between atoms: _100  and  _102
REMARK   44  A    between atoms: _102  and  _103
REMARK   45  A    between atoms: _102  and  _105
REMARK   46  A    between atoms: _105  and  _106
REMARK   47  A    between atoms: _116  and  _118
REMARK   48  A    between atoms: _118  and  _119
REMARK   49  A    between atoms: _118  and  _121
REMARK   50  A    between atoms: _121  and  _122
REMARK   51  A    between atoms: _128  and  _129
REMARK   52  A    between atoms: _134  and  _136
REMARK   53  A    between atoms: _136  and  _137
REMARK   54  A    between atoms: _136  and  _139
REMARK   55  A    between atoms: _139  and  _140
REMARK   56  A    between atoms: _150  and  _152
REMARK   57  A    between atoms: _152  and  _153
REMARK   58  A    between atoms: _152  and  _155
REMARK   59  A    between atoms: _155  and  _156
REMARK   60  A    between atoms: _159  and  _161
REMARK   61  A    between atoms: _161  and  _162
REMARK   62  A    between atoms: _161  and  _164
REMARK   63  A    between atoms: _164  and  _165
REMARK   64  A    between atoms: _170  and  _171
REMARK   65  A    between atoms: _173  and  _175
REMARK   66  A    between atoms: _175  and  _176
REMARK   67  A    between atoms: _178  and  _180
REMARK   68  A    between atoms: _180  and  _181
REMARK   69  A    between atoms: _183  and  _185
REMARK   70  A    between atoms: _185  and  _186
REMARK   71  A    between atoms: _188  and  _190
REMARK   72  A    between atoms: _190  and  _191
REMARK   73  A    between atoms: _190  and  _193
REMARK   74  A    between atoms: _193  and  _194
REMARK   75  A    between atoms: _200  and  _202
REMARK   76  A    between atoms: _202  and  _203
REMARK   77  A    between atoms: _202  and  _205
REMARK   78  A    between atoms: _205  and  _206
REMARK   79  A    between atoms: _211  and  _212
REMARK   80  A    between atoms: _214  and  _216
REMARK   81  A    between atoms: _216  and  _217
REMARK   82  A    between atoms: _216  and  _219
REMARK   83  A    between atoms: _219  and  _220
REMARK   84  A    between atoms: _222  and  _224
REMARK   85  A    between atoms: _224  and  _225
REMARK   86  A    between atoms: _227  and  _229
REMARK   87  A    between atoms: _229  and  _230
REMARK   88  A    between atoms: _229  and  _232
REMARK   89  A    between atoms: _232  and  _233
REMARK   90  A    between atoms: _235  and  _237
REMARK   91  A    between atoms: _237  and  _238
REMARK   92  A    between atoms: _237  and  _240
REMARK   93  A    between atoms: _240  and  _241
REMARK   94  A    between atoms: _243  and  _245
REMARK   95  A    between atoms: _245  and  _246
REMARK   96  A    between atoms: _245  and  _248
REMARK   97  A    between atoms: _248  and  _249
REMARK   98  A    between atoms: _252  and  _254
REMARK   99  A    between atoms: _254  and  _255
REMARK  100  A    between atoms: _254  and  _257
REMARK  101  A    between atoms: _257  and  _258
REMARK  102  A    between atoms: _261  and  _263
REMARK  103  A    between atoms: _263  and  _264
REMARK  104  A    between atoms: _263  and  _266
REMARK  105  A    between atoms: _269  and  _271
REMARK  106  A    between atoms: _271  and  _272
REMARK  107  A    between atoms: _271  and  _274
REMARK  108  A    between atoms: _274  and  _275
REMARK  109  A    between atoms: _280  and  _281
REMARK  110  A    between atoms: _283  and  _285
REMARK  111  A    between atoms: _285  and  _286
REMARK  112  A    between atoms: _285  and  _288
REMARK  113  A    between atoms: _288  and  _289
REMARK  114  A    between atoms: _294  and  _295
REMARK  115  A    between atoms: _297  and  _299
REMARK  116  A    between atoms: _299  and  _300
REMARK  117  A    between atoms: _299  and  _302
REMARK  118  A    between atoms: _305  and  _307
REMARK  119  A    between atoms: _307  and  _308
REMARK  120  A    between atoms: _307  and  _310
REMARK  121  A    between atoms: _310  and  _311
REMARK  122  A    between atoms: _311  and  _312
REMARK  123  A    between atoms: _315  and  _317
REMARK  124  A    between atoms: _317  and  _318
REMARK  125  A    between atoms: _317  and  _320
REMARK  126  A    between atoms: _320  and  _321
REMARK  127  A    between atoms: _323  and  _325
REMARK  128  A    between atoms: _325  and  _326
REMARK  129  A    between atoms: _329  and  _331
REMARK  130  A    between atoms: _331  and  _332
REMARK  131  A    between atoms: _334  and  _336
REMARK  132  A    between atoms: _336  and  _337
REMARK  133  A    between atoms: _336  and  _339
REMARK  134  A    between atoms: _339  and  _340
REMARK  135  A    between atoms: _342  and  _344
REMARK  136  A    between atoms: _344  and  _345
REMARK  137  A    between atoms: _344  and  _347
REMARK  138  A    between atoms: _347  and  _348
REMARK  139  A    between atoms: _358  and  _360
REMARK  140  A    between atoms: _360  and  _361
REMARK  141  A    between atoms: _360  and  _363
REMARK  142  A    between atoms: _363  and  _364
REMARK  143  A    between atoms: _364  and  _365
REMARK  144  A    between atoms: _368  and  _370
REMARK  145  A    between atoms: _370  and  _371
REMARK  146  A    between atoms: _370  and  _373
REMARK  147  A    between atoms: _373  and  _374
REMARK  148  A    between atoms: _384  and  _386
REMARK  149  A    between atoms: _386  and  _387
REMARK  150  A    between atoms: _386  and  _389
REMARK  151  A    between atoms: _389  and  _390
REMARK  152  A    between atoms: _395  and  _397
REMARK  153  A    between atoms: _397  and  _398
REMARK  154  A    between atoms: _397  and  _400
REMARK  155  A    between atoms: _400  and  _401
REMARK  156  A    between atoms: _404  and  _406
REMARK  157  A    between atoms: _406  and  _407
REMARK  158  A    between atoms: _406  and  _409
REMARK  159  A    between atoms: _409  and  _410
REMARK  160  A    between atoms: _416  and  _418
REMARK  161  A    between atoms: _418  and  _419
REMARK  162  A    between atoms: _418  and  _421
REMARK  163  A    between atoms: _421  and  _422
REMARK  164  A    between atoms: _425  and  _427
REMARK  165  A    between atoms: _427  and  _428
REMARK  166  A    between atoms: _427  and  _430
REMARK  167  A    between atoms: _430  and  _431
REMARK  168  A    between atoms: _433  and  _435
REMARK  169  A    between atoms: _435  and  _436
REMARK  170  A    between atoms: _435  and  _438
REMARK  171  A    between atoms: _438  and  _439
REMARK  172  A    between atoms: _442  and  _444
REMARK  173  A    between atoms: _444  and  _445
REMARK  174  A    between atoms: _444  and  _447
REMARK  175  A    between atoms: _447  and  _448
REMARK  176  A    between atoms: _454  and  _456
REMARK  177  A    between atoms: _456  and  _457
REMARK  178  A    between atoms: _456  and  _459
REMARK  179  A    between atoms: _459  and  _460
REMARK  180  A    between atoms: _460  and  _461
REMARK  181  A    between atoms: _461  and  _462
REMARK  182  A    between atoms: _471  and  _473
REMARK  183  A    between atoms: _473  and  _474
REMARK  184  A    between atoms: _473  and  _476
REMARK  185  A    between atoms: _476  and  _477
REMARK  186  A    between atoms: _483  and  _485
REMARK  187  A    between atoms: _485  and  _486
REMARK  188  A    between atoms: _485  and  _488
REMARK  189  A    between atoms: _488  and  _489
REMARK  190  A    between atoms: _491  and  _493
REMARK  191  A    between atoms: _493  and  _494
REMARK  192  A    between atoms: _493  and  _496
REMARK  193  A    between atoms: _496  and  _497
REMARK  194  A    between atoms: _502  and  _504
REMARK  195  A    between atoms: _504  and  _505
REMARK  196  A    between atoms: _504  and  _507
REMARK  197  A    between atoms: _507  and  _508
REMARK  198  A    between atoms: _508  and  _509
REMARK  199  A    between atoms: _512  and  _514
REMARK  200  A    between atoms: _514  and  _515
REMARK  201  A    between atoms: _517  and  _519
REMARK  202  A    between atoms: _519  and  _520
REMARK  203  A    between atoms: _519  and  _522
REMARK  204  A    between atoms: _522  and  _523
REMARK  205  A    between atoms: _525  and  _527
REMARK  206  A    between atoms: _527  and  _528
REMARK  207  A    between atoms: _527  and  _530
REMARK  208  A    between atoms: _530  and  _531
REMARK  209  A    between atoms: _537  and  _539
REMARK  210  A    between atoms: _539  and  _540
REMARK  211  A    between atoms: _539  and  _542
REMARK  212  A    between atoms: _542  and  _543
REMARK  213  A    between atoms: _549  and  _551
REMARK  214  A    between atoms: _551  and  _552
REMARK  215  A    between atoms: _551  and  _554
REMARK  216  A    between atoms: _554  and  _555
REMARK  217  A    between atoms: _558  and  _560
REMARK  218  A    between atoms: _560  and  _561
REMARK  219  A    between atoms: _560  and  _563
REMARK  220  A    between atoms: _563  and  _564
REMARK  221  A    between atoms: _567  and  _569
REMARK  222  A    between atoms: _569  and  _570
REMARK  223  A    between atoms: _569  and  _572
REMARK  224  A    between atoms: _572  and  _573
REMARK  225  A    between atoms: _578  and  _579
REMARK  226  A    between atoms: _581  and  _583
REMARK  227  A    between atoms: _583  and  _584
REMARK  228  A    between atoms: _586  and  _588
REMARK  229  A    between atoms: _588  and  _589
REMARK  230  A    between atoms: _592  and  _594
REMARK  231  A    between atoms: _594  and  _595
REMARK  232  A    between atoms: _594  and  _597
REMARK  233  A    between atoms: _597  and  _598
REMARK  234  A    between atoms: _601  and  _603
REMARK  235  A    between atoms: _603  and  _604
REMARK  236  A    between atoms: _603  and  _606
REMARK  237  A    between atoms: _606  and  _607
REMARK  238  A    between atoms: _609  and  _611
REMARK  239  A    between atoms: _611  and  _612
REMARK  240  A    between atoms: _611  and  _614
REMARK  241  A    between atoms: _617  and  _619
REMARK  242  A    between atoms: _619  and  _620
REMARK  243  A    between atoms: _619  and  _622
REMARK  244  A    between atoms: _622  and  _623
REMARK  245  A    between atoms: _628  and  _630
REMARK  246  A    between atoms: _630  and  _631
REMARK  247  A    between atoms: _630  and  _633
REMARK  248  A    between atoms: _633  and  _634
REMARK  249  A    between atoms: _644  and  _646
REMARK  250  A    between atoms: _646  and  _647
REMARK  251  A    between atoms: _646  and  _649
REMARK  252  A    between atoms: _649  and  _650
REMARK  253  A    between atoms: _650  and  _651
REMARK  254  A    between atoms: _653  and  _655
REMARK  255  A    between atoms: _655  and  _656
REMARK  256  A    between atoms: _655  and  _658
REMARK  257  A    between atoms: _658  and  _659
REMARK  258  A    between atoms: _662  and  _664
REMARK  259  A    between atoms: _664  and  _665
REMARK  260  A    between atoms: _664  and  _667
REMARK  261  A    between atoms: _667  and  _668
REMARK  262  A    between atoms: _673  and  _675
REMARK  263  A    between atoms: _675  and  _676
REMARK  264  A    between atoms: _678  and  _680
REMARK  265  A    between atoms: _680  and  _681
REMARK  266  A    between atoms: _680  and  _683
REMARK  267  A    between atoms: _683  and  _684
REMARK  268  A    between atoms: _689  and  _690
REMARK  269  A    between atoms: _692  and  _694
REMARK  270  A    between atoms: _694  and  _695
REMARK  271  A    between atoms: _694  and  _697
REMARK  272  A    between atoms: _697  and  _698
REMARK  273  A    between atoms: _698  and  _699
REMARK  274  A    between atoms: _702  and  _704
REMARK  275  A    between atoms: _704  and  _705
REMARK  276  A    between atoms: _704  and  _707
REMARK  277  A    between atoms: _707  and  _708
REMARK                            x       y       z     vdW  Elec       q    Type
REMARK                         _______ _______ _______ _____ _____    ______ ____
ROOT
ATOM      1  O   HOH     1       1.961  53.069  73.580  0.00  0.00    +0.000 OA
ENDROOT
TORSDOF 0
REMARK  Name = ../refined-set-2016/1h22/1h22_pocket.pdb
REMARK  277 active torsions:
REMARK  status: ('A' for Active; 'I' for Inactive)
REMARK    1  A    between atoms: _1  and  _3
REMARK    2  A    between atoms: _3  and  _4
REMARK    3  A    between atoms: _3  and  _6
REMARK    4  A    between atoms: _6  and  _7
REMARK    5  A    between atoms: _7  and  _8
REMARK    6  A    between atoms: _13  and  _15
REMARK    7  A    between atoms: _15  and  _16
REMARK    8  A    between atoms: _15  and  _18
REMARK    9  A    between atoms: _18  and  _19
REMARK   10  A    between atoms: _24  and  _25
REMARK   11  A    between atoms: _27  and  _29
REMARK   12  A    between atoms: _29  and  _30
REMARK   13  A    between atoms: _29  and  _32
REMARK   14  A    between atoms: _35  and  _37
REMARK   15  A    between atoms: _37  and  _38
REMARK   16  A    between atoms: _37  and  _40
REMARK   17  A    between atoms: _40  and  _41
REMARK   18  A    between atoms: _44  and  _46
REMARK   19  A    between atoms: _46  and  _47
REMARK   20  A    between atoms: _46  and  _49
REMARK   21  A    between atoms: _49  and  _50
REMARK   22  A    between atoms: _50  and  _51
REMARK   23  A    between atoms: _54  and  _56
REMARK   24  A    between atoms: _56  and  _57
REMARK   25  A    between atoms: _56  and  _59
REMARK   26  A    between atoms: _59  and  _60
REMARK   27  A    between atoms: _60  and  _61
REMARK   28  A    between atoms: _66  and  _68
REMARK   29  A    between atoms: _68  and  _69
REMARK   30  A    between atoms: _68  and  _71
REMARK   31  A    between atoms: _71  and  _72
REMARK   32  A    between atoms: _78  and  _80
REMARK   33  A    between atoms: _80  and  _81
REMARK   34  A    between atoms: _83  and  _85
REMARK   35  A    between atoms: _85  and  _86
REMARK   36  A    between atoms: _85  and  _88
REMARK   37  A    between atoms: _88  and  _89
REMARK   38  A    between atoms: _91  and  _93
REMARK   39  A    between atoms: _93  and  _94
REMARK   40  A    between atoms: _93  and  _96
REMARK   41  A    between atoms: _96  and  _97
REMARK   42  A    between atoms: _97  and  _98
REMARK   43  A    between atoms: _100  and  _102
REMARK   44  A    between atoms: _102  and  _103
REMARK   45  A    between atoms: _102  and  _105
REMARK   46  A    between atoms: _105  and  _106
REMARK   47  A    between atoms: _116  and  _118
REMARK   48  A    between atoms: _118  and  _119
REMARK   49  A    between atoms: _118  and  _121
REMARK   50  A    between atoms: _121  and  _122
REMARK   51  A    between atoms: _128  and  _129
REMARK   52  A    between atoms: _134  and  _136
REMARK   53  A    between atoms: _136  and  _137
REMARK   54  A    between atoms: _136  and  _139
REMARK   55  A    between atoms: _139  and  _140
REMARK   56  A    between atoms: _150  and  _152
REMARK   57  A    between atoms: _152  and  _153
REMARK   58  A    between atoms: _152  and  _155
REMARK   59  A    between atoms: _155  and  _156
REMARK   60  A    between atoms: _159  and  _161
REMARK   61  A    between atoms: _161  and  _162
REMARK   62  A    between atoms: _161  and  _164
REMARK   63  A    between atoms: _164  and  _165
REMARK   64  A    between atoms: _170  and  _171
REMARK   65  A    between atoms: _173  and  _175
REMARK   66  A    between atoms: _175  and  _176
REMARK   67  A    between atoms: _178  and  _180
REMARK   68  A    between atoms: _180  and  _181
REMARK   69  A    between atoms: _183  and  _185
REMARK   70  A    between atoms: _185  and  _186
REMARK   71  A    between atoms: _188  and  _190
REMARK   72  A    between atoms: _190  and  _191
REMARK   73  A    between atoms: _190  and  _193
REMARK   74  A    between atoms: _193  and  _194
REMARK   75  A    between atoms: _200  and  _202
REMARK   76  A    between atoms: _202  and  _203
REMARK   77  A    between atoms: _202  and  _205
REMARK   78  A    between atoms: _205  and  _206
REMARK   79  A    between atoms: _211  and  _212
REMARK   80  A    between atoms: _214  and  _216
REMARK   81  A    between atoms: _216  and  _217
REMARK   82  A    between atoms: _216  and  _219
REMARK   83  A    between atoms: _219  and  _220
REMARK   84  A    between atoms: _222  and  _224
REMARK   85  A    between atoms: _224  and  _225
REMARK   86  A    between atoms: _227  and  _229
REMARK   87  A    between atoms: _229  and  _230
REMARK   88  A    between atoms: _229  and  _232
REMARK   89  A    between atoms: _232  and  _233
REMARK   90  A    between atoms: _235  and  _237
REMARK   91  A    between atoms: _237  and  _238
REMARK   92  A    between atoms: _237  and  _240
REMARK   93  A    between atoms: _240  and  _241
REMARK   94  A    between atoms: _243  and  _245
REMARK   95  A    between atoms: _245  and  _246
REMARK   96  A    between atoms: _245  and  _248
REMARK   97  A    between atoms: _248  and  _249
REMARK   98  A    between atoms: _252  and  _254
REMARK   99  A    between atoms: _254  and  _255
REMARK  100  A    between atoms: _254  and  _257
REMARK  101  A    between atoms: _257  and  _258
REMARK  102  A    between atoms: _261  and  _263
REMARK  103  A    between atoms: _263  and  _264
REMARK  104  A    between atoms: _263  and  _266
REMARK  105  A    between atoms: _269  and  _271
REMARK  106  A    between atoms: _271  and  _272
REMARK  107  A    between atoms: _271  and  _274
REMARK  108  A    between atoms: _274  and  _275
REMARK  109  A    between atoms: _280  and  _281
REMARK  110  A    between atoms: _283  and  _285
REMARK  111  A    between atoms: _285  and  _286
REMARK  112  A    between atoms: _285  and  _288
REMARK  113  A    between atoms: _288  and  _289
REMARK  114  A    between atoms: _294  and  _295
REMARK  115  A    between atoms: _297  and  _299
REMARK  116  A    between atoms: _299  and  _300
REMARK  117  A    between atoms: _299  and  _302
REMARK  118  A    between atoms: _305  and  _307
REMARK  119  A    between atoms: _307  and  _308
REMARK  120  A    between atoms: _307  and  _310
REMARK  121  A    between atoms: _310  and  _311
REMARK  122  A    between atoms: _311  and  _312
REMARK  123  A    between atoms: _315  and  _317
REMARK  124  A    between atoms: _317  and  _318
REMARK  125  A    between atoms: _317  and  _320
REMARK  126  A    between atoms: _320  and  _321
REMARK  127  A    between atoms: _323  and  _325
REMARK  128  A    between atoms: _325  and  _326
REMARK  129  A    between atoms: _329  and  _331
REMARK  130  A    between atoms: _331  and  _332
REMARK  131  A    between atoms: _334  and  _336
REMARK  132  A    between atoms: _336  and  _337
REMARK  133  A    between atoms: _336  and  _339
REMARK  134  A    between atoms: _339  and  _340
REMARK  135  A    between atoms: _342  and  _344
REMARK  136  A    between atoms: _344  and  _345
REMARK  137  A    between atoms: _344  and  _347
REMARK  138  A    between atoms: _347  and  _348
REMARK  139  A    between atoms: _358  and  _360
REMARK  140  A    between atoms: _360  and  _361
REMARK  141  A    between atoms: _360  and  _363
REMARK  142  A    between atoms: _363  and  _364
REMARK  143  A    between atoms: _364  and  _365
REMARK  144  A    between atoms: _368  and  _370
REMARK  145  A    between atoms: _370  and  _371
REMARK  146  A    between atoms: _370  and  _373
REMARK  147  A    between atoms: _373  and  _374
REMARK  148  A    between atoms: _384  and  _386
REMARK  149  A    between atoms: _386  and  _387
REMARK  150  A    between atoms: _386  and  _389
REMARK  151  A    between atoms: _389  and  _390
REMARK  152  A    between atoms: _395  and  _397
REMARK  153  A    between atoms: _397  and  _398
REMARK  154  A    between atoms: _397  and  _400
REMARK  155  A    between atoms: _400  and  _401
REMARK  156  A    between atoms: _404  and  _406
REMARK  157  A    between atoms: _406  and  _407
REMARK  158  A    between atoms: _406  and  _409
REMARK  159  A    between atoms: _409  and  _410
REMARK  160  A    between atoms: _416  and  _418
REMARK  161  A    between atoms: _418  and  _419
REMARK  162  A    between atoms: _418  and  _421
REMARK  163  A    between atoms: _421  and  _422
REMARK  164  A    between atoms: _425  and  _427
REMARK  165  A    between atoms: _427  and  _428
REMARK  166  A    between atoms: _427  and  _430
REMARK  167  A    between atoms: _430  and  _431
REMARK  168  A    between atoms: _433  and  _435
REMARK  169  A    between atoms: _435  and  _436
REMARK  170  A    between atoms: _435  and  _438
REMARK  171  A    between atoms: _438  and  _439
REMARK  172  A    between atoms: _442  and  _444
REMARK  173  A    between atoms: _444  and  _445
REMARK  174  A    between atoms: _444  and  _447
REMARK  175  A    between atoms: _447  and  _448
REMARK  176  A    between atoms: _454  and  _456
REMARK  177  A    between atoms: _456  and  _457
REMARK  178  A    between atoms: _456  and  _459
REMARK  179  A    between atoms: _459  and  _460
REMARK  180  A    between atoms: _460  and  _461
REMARK  181  A    between atoms: _461  and  _462
REMARK  182  A    between atoms: _471  and  _473
REMARK  183  A    between atoms: _473  and  _474
REMARK  184  A    between atoms: _473  and  _476
REMARK  185  A    between atoms: _476  and  _477
REMARK  186  A    between atoms: _483  and  _485
REMARK  187  A    between atoms: _485  and  _486
REMARK  188  A    between atoms: _485  and  _488
REMARK  189  A    between atoms: _488  and  _489
REMARK  190  A    between atoms: _491  and  _493
REMARK  191  A    between atoms: _493  and  _494
REMARK  192  A    between atoms: _493  and  _496
REMARK  193  A    between atoms: _496  and  _497
REMARK  194  A    between atoms: _502  and  _504
REMARK  195  A    between atoms: _504  and  _505
REMARK  196  A    between atoms: _504  and  _507
REMARK  197  A    between atoms: _507  and  _508
REMARK  198  A    between atoms: _508  and  _509
REMARK  199  A    between atoms: _512  and  _514
REMARK  200  A    between atoms: _514  and  _515
REMARK  201  A    between atoms: _517  and  _519
REMARK  202  A    between atoms: _519  and  _520
REMARK  203  A    between atoms: _519  and  _522
REMARK  204  A    between atoms: _522  and  _523
REMARK  205  A    between atoms: _525  and  _527
REMARK  206  A    between atoms: _527  and  _528
REMARK  207  A    between atoms: _527  and  _530
REMARK  208  A    between atoms: _530  and  _531
REMARK  209  A    between atoms: _537  and  _539
REMARK  210  A    between atoms: _539  and  _540
REMARK  211  A    between atoms: _539  and  _542
REMARK  212  A    between atoms: _542  and  _543
REMARK  213  A    between atoms: _549  and  _551
REMARK  214  A    between atoms: _551  and  _552
REMARK  215  A    between atoms: _551  and  _554
REMARK  216  A    between atoms: _554  and  _555
REMARK  217  A    between atoms: _558  and  _560
REMARK  218  A    between atoms: _560  and  _561
REMARK  219  A    between atoms: _560  and  _563
REMARK  220  A    between atoms: _563  and  _564
REMARK  221  A    between atoms: _567  and  _569
REMARK  222  A    between atoms: _569  and  _570
REMARK  223  A    between atoms: _569  and  _572
REMARK  224  A    between atoms: _572  and  _573
REMARK  225  A    between atoms: _578  and  _579
REMARK  226  A    between atoms: _581  and  _583
REMARK  227  A    between atoms: _583  and  _584
REMARK  228  A    between atoms: _586  and  _588
REMARK  229  A    between atoms: _588  and  _589
REMARK  230  A    between atoms: _592  and  _594
REMARK  231  A    between atoms: _594  and  _595
REMARK  232  A    between atoms: _594  and  _597
REMARK  233  A    between atoms: _597  and  _598
REMARK  234  A    between atoms: _601  and  _603
REMARK  235  A    between atoms: _603  and  _604
REMARK  236  A    between atoms: _603  and  _606
REMARK  237  A    between atoms: _606  and  _607
REMARK  238  A    between atoms: _609  and  _611
REMARK  239  A    between atoms: _611  and  _612
REMARK  240  A    between atoms: _611  and  _614
REMARK  241  A    between atoms: _617  and  _619
REMARK  242  A    between atoms: _619  and  _620
REMARK  243  A    between atoms: _619  and  _622
REMARK  244  A    between atoms: _622  and  _623
REMARK  245  A    between atoms: _628  and  _630
REMARK  246  A    between atoms: _630  and  _631
REMARK  247  A    between atoms: _630  and  _633
REMARK  248  A    between atoms: _633  and  _634
REMARK  249  A    between atoms: _644  and  _646
REMARK  250  A    between atoms: _646  and  _647
REMARK  251  A    between atoms: _646  and  _649
REMARK  252  A    between atoms: _649  and  _650
REMARK  253  A    between atoms: _650  and  _651
REMARK  254  A    between atoms: _653  and  _655
REMARK  255  A    between atoms: _655  and  _656
REMARK  256  A    between atoms: _655  and  _658
REMARK  257  A    between atoms: _658  and  _659
REMARK  258  A    between atoms: _662  and  _664
REMARK  259  A    between atoms: _664  and  _665
REMARK  260  A    between atoms: _664  and  _667
REMARK  261  A    between atoms: _667  and  _668
REMARK  262  A    between atoms: _673  and  _675
REMARK  263  A    between atoms: _675  and  _676
REMARK  264  A    between atoms: _678  and  _680
REMARK  265  A    between atoms: _680  and  _681
REMARK  266  A    between atoms: _680  and  _683
REMARK  267  A    between atoms: _683  and  _684
REMARK  268  A    between atoms: _689  and  _690
REMARK  269  A    between atoms: _692  and  _694
REMARK  270  A    between atoms: _694  and  _695
REMARK  271  A    between atoms: _694  and  _697
REMARK  272  A    between atoms: _697  and  _698
REMARK  273  A    between atoms: _698  and  _699
REMARK  274  A    between atoms: _702  and  _704
REMARK  275  A    between atoms: _704  and  _705
REMARK  276  A    between atoms: _704  and  _707
REMARK  277  A    between atoms: _707  and  _708
REMARK                            x       y       z     vdW  Elec       q    Type
REMARK                         _______ _______ _______ _____ _____    ______ ____
ROOT
ATOM      1  O   HOH     1       3.330  50.175  69.437  0.00  0.00    +0.000 OA
ENDROOT
TORSDOF 0
REMARK  Name = ../refined-set-2016/1h22/1h22_pocket.pdb
REMARK  277 active torsions:
REMARK  status: ('A' for Active; 'I' for Inactive)
REMARK    1  A    between atoms: _1  and  _3
REMARK    2  A    between atoms: _3  and  _4
REMARK    3  A    between atoms: _3  and  _6
REMARK    4  A    between atoms: _6  and  _7
REMARK    5  A    between atoms: _7  and  _8
REMARK    6  A    between atoms: _13  and  _15
REMARK    7  A    between atoms: _15  and  _16
REMARK    8  A    between atoms: _15  and  _18
REMARK    9  A    between atoms: _18  and  _19
REMARK   10  A    between atoms: _24  and  _25
REMARK   11  A    between atoms: _27  and  _29
REMARK   12  A    between atoms: _29  and  _30
REMARK   13  A    between atoms: _29  and  _32
REMARK   14  A    between atoms: _35  and  _37
REMARK   15  A    between atoms: _37  and  _38
REMARK   16  A    between atoms: _37  and  _40
REMARK   17  A    between atoms: _40  and  _41
REMARK   18  A    between atoms: _44  and  _46
REMARK   19  A    between atoms: _46  and  _47
REMARK   20  A    between atoms: _46  and  _49
REMARK   21  A    between atoms: _49  and  _50
REMARK   22  A    between atoms: _50  and  _51
REMARK   23  A    between atoms: _54  and  _56
REMARK   24  A    between atoms: _56  and  _57
REMARK   25  A    between atoms: _56  and  _59
REMARK   26  A    between atoms: _59  and  _60
REMARK   27  A    between atoms: _60  and  _61
REMARK   28  A    between atoms: _66  and  _68
REMARK   29  A    between atoms: _68  and  _69
REMARK   30  A    between atoms: _68  and  _71
REMARK   31  A    between atoms: _71  and  _72
REMARK   32  A    between atoms: _78  and  _80
REMARK   33  A    between atoms: _80  and  _81
REMARK   34  A    between atoms: _83  and  _85
REMARK   35  A    between atoms: _85  and  _86
REMARK   36  A    between atoms: _85  and  _88
REMARK   37  A    between atoms: _88  and  _89
REMARK   38  A    between atoms: _91  and  _93
REMARK   39  A    between atoms: _93  and  _94
REMARK   40  A    between atoms: _93  and  _96
REMARK   41  A    between atoms: _96  and  _97
REMARK   42  A    between atoms: _97  and  _98
REMARK   43  A    between atoms: _100  and  _102
REMARK   44  A    between atoms: _102  and  _103
REMARK   45  A    between atoms: _102  and  _105
REMARK   46  A    between atoms: _105  and  _106
REMARK   47  A    between atoms: _116  and  _118
REMARK   48  A    between atoms: _118  and  _119
REMARK   49  A    between atoms: _118  and  _121
REMARK   50  A    between atoms: _121  and  _122
REMARK   51  A    between atoms: _128  and  _129
REMARK   52  A    between atoms: _134  and  _136
REMARK   53  A    between atoms: _136  and  _137
REMARK   54  A    between atoms: _136  and  _139
REMARK   55  A    between atoms: _139  and  _140
REMARK   56  A    between atoms: _150  and  _152
REMARK   57  A    between atoms: _152  and  _153
REMARK   58  A    between atoms: _152  and  _155
REMARK   59  A    between atoms: _155  and  _156
REMARK   60  A    between atoms: _159  and  _161
REMARK   61  A    between atoms: _161  and  _162
REMARK   62  A    between atoms: _161  and  _164
REMARK   63  A    between atoms: _164  and  _165
REMARK   64  A    between atoms: _170  and  _171
REMARK   65  A    between atoms: _173  and  _175
REMARK   66  A    between atoms: _175  and  _176
REMARK   67  A    between atoms: _178  and  _180
REMARK   68  A    between atoms: _180  and  _181
REMARK   69  A    between atoms: _183  and  _185
REMARK   70  A    between atoms: _185  and  _186
REMARK   71  A    between atoms: _188  and  _190
REMARK   72  A    between atoms: _190  and  _191
REMARK   73  A    between atoms: _190  and  _193
REMARK   74  A    between atoms: _193  and  _194
REMARK   75  A    between atoms: _200  and  _202
REMARK   76  A    between atoms: _202  and  _203
REMARK   77  A    between atoms: _202  and  _205
REMARK   78  A    between atoms: _205  and  _206
REMARK   79  A    between atoms: _211  and  _212
REMARK   80  A    between atoms: _214  and  _216
REMARK   81  A    between atoms: _216  and  _217
REMARK   82  A    between atoms: _216  and  _219
REMARK   83  A    between atoms: _219  and  _220
REMARK   84  A    between atoms: _222  and  _224
REMARK   85  A    between atoms: _224  and  _225
REMARK   86  A    between atoms: _227  and  _229
REMARK   87  A    between atoms: _229  and  _230
REMARK   88  A    between atoms: _229  and  _232
REMARK   89  A    between atoms: _232  and  _233
REMARK   90  A    between atoms: _235  and  _237
REMARK   91  A    between atoms: _237  and  _238
REMARK   92  A    between atoms: _237  and  _240
REMARK   93  A    between atoms: _240  and  _241
REMARK   94  A    between atoms: _243  and  _245
REMARK   95  A    between atoms: _245  and  _246
REMARK   96  A    between atoms: _245  and  _248
REMARK   97  A    between atoms: _248  and  _249
REMARK   98  A    between atoms: _252  and  _254
REMARK   99  A    between atoms: _254  and  _255
REMARK  100  A    between atoms: _254  and  _257
REMARK  101  A    between atoms: _257  and  _258
REMARK  102  A    between atoms: _261  and  _263
REMARK  103  A    between atoms: _263  and  _264
REMARK  104  A    between atoms: _263  and  _266
REMARK  105  A    between atoms: _269  and  _271
REMARK  106  A    between atoms: _271  and  _272
REMARK  107  A    between atoms: _271  and  _274
REMARK  108  A    between atoms: _274  and  _275
REMARK  109  A    between atoms: _280  and  _281
REMARK  110  A    between atoms: _283  and  _285
REMARK  111  A    between atoms: _285  and  _286
REMARK  112  A    between atoms: _285  and  _288
REMARK  113  A    between atoms: _288  and  _289
REMARK  114  A    between atoms: _294  and  _295
REMARK  115  A    between atoms: _297  and  _299
REMARK  116  A    between atoms: _299  and  _300
REMARK  117  A    between atoms: _299  and  _302
REMARK  118  A    between atoms: _305  and  _307
REMARK  119  A    between atoms: _307  and  _308
REMARK  120  A    between atoms: _307  and  _310
REMARK  121  A    between atoms: _310  and  _311
REMARK  122  A    between atoms: _311  and  _312
REMARK  123  A    between atoms: _315  and  _317
REMARK  124  A    between atoms: _317  and  _318
REMARK  125  A    between atoms: _317  and  _320
REMARK  126  A    between atoms: _320  and  _321
REMARK  127  A    between atoms: _323  and  _325
REMARK  128  A    between atoms: _325  and  _326
REMARK  129  A    between atoms: _329  and  _331
REMARK  130  A    between atoms: _331  and  _332
REMARK  131  A    between atoms: _334  and  _336
REMARK  132  A    between atoms: _336  and  _337
REMARK  133  A    between atoms: _336  and  _339
REMARK  134  A    between atoms: _339  and  _340
REMARK  135  A    between atoms: _342  and  _344
REMARK  136  A    between atoms: _344  and  _345
REMARK  137  A    between atoms: _344  and  _347
REMARK  138  A    between atoms: _347  and  _348
REMARK  139  A    between atoms: _358  and  _360
REMARK  140  A    between atoms: _360  and  _361
REMARK  141  A    between atoms: _360  and  _363
REMARK  142  A    between atoms: _363  and  _364
REMARK  143  A    between atoms: _364  and  _365
REMARK  144  A    between atoms: _368  and  _370
REMARK  145  A    between atoms: _370  and  _371
REMARK  146  A    between atoms: _370  and  _373
REMARK  147  A    between atoms: _373  and  _374
REMARK  148  A    between atoms: _384  and  _386
REMARK  149  A    between atoms: _386  and  _387
REMARK  150  A    between atoms: _386  and  _389
REMARK  151  A    between atoms: _389  and  _390
REMARK  152  A    between atoms: _395  and  _397
REMARK  153  A    between atoms: _397  and  _398
REMARK  154  A    between atoms: _397  and  _400
REMARK  155  A    between atoms: _400  and  _401
REMARK  156  A    between atoms: _404  and  _406
REMARK  157  A    between atoms: _406  and  _407
REMARK  158  A    between atoms: _406  and  _409
REMARK  159  A    between atoms: _409  and  _410
REMARK  160  A    between atoms: _416  and  _418
REMARK  161  A    between atoms: _418  and  _419
REMARK  162  A    between atoms: _418  and  _421
REMARK  163  A    between atoms: _421  and  _422
REMARK  164  A    between atoms: _425  and  _427
REMARK  165  A    between atoms: _427  and  _428
REMARK  166  A    between atoms: _427  and  _430
REMARK  167  A    between atoms: _430  and  _431
REMARK  168  A    between atoms: _433  and  _435
REMARK  169  A    between atoms: _435  and  _436
REMARK  170  A    between atoms: _435  and  _438
REMARK  171  A    between atoms: _438  and  _439
REMARK  172  A    between atoms: _442  and  _444
REMARK  173  A    between atoms: _444  and  _445
REMARK  174  A    between atoms: _444  and  _447
REMARK  175  A    between atoms: _447  and  _448
REMARK  176  A    between atoms: _454  and  _456
REMARK  177  A    between atoms: _456  and  _457
REMARK  178  A    between atoms: _456  and  _459
REMARK  179  A    between atoms: _459  and  _460
REMARK  180  A    between atoms: _460  and  _461
REMARK  181  A    between atoms: _461  and  _462
REMARK  182  A    between atoms: _471  and  _473
REMARK  183  A    between atoms: _473  and  _474
REMARK  184  A    between atoms: _473  and  _476
REMARK  185  A    between atoms: _476  and  _477
REMARK  186  A    between atoms: _483  and  _485
REMARK  187  A    between atoms: _485  and  _486
REMARK  188  A    between atoms: _485  and  _488
REMARK  189  A    between atoms: _488  and  _489
REMARK  190  A    between atoms: _491  and  _493
REMARK  191  A    between atoms: _493  and  _494
REMARK  192  A    between atoms: _493  and  _496
REMARK  193  A    between atoms: _496  and  _497
REMARK  194  A    between atoms: _502  and  _504
REMARK  195  A    between atoms: _504  and  _505
REMARK  196  A    between atoms: _504  and  _507
REMARK  197  A    between atoms: _507  and  _508
REMARK  198  A    between atoms: _508  and  _509
REMARK  199  A    between atoms: _512  and  _514
REMARK  200  A    between atoms: _514  and  _515
REMARK  201  A    between atoms: _517  and  _519
REMARK  202  A    between atoms: _519  and  _520
REMARK  203  A    between atoms: _519  and  _522
REMARK  204  A    between atoms: _522  and  _523
REMARK  205  A    between atoms: _525  and  _527
REMARK  206  A    between atoms: _527  and  _528
REMARK  207  A    between atoms: _527  and  _530
REMARK  208  A    between atoms: _530  and  _531
REMARK  209  A    between atoms: _537  and  _539
REMARK  210  A    between atoms: _539  and  _540
REMARK  211  A    between atoms: _539  and  _542
REMARK  212  A    between atoms: _542  and  _543
REMARK  213  A    between atoms: _549  and  _551
REMARK  214  A    between atoms: _551  and  _552
REMARK  215  A    between atoms: _551  and  _554
REMARK  216  A    between atoms: _554  and  _555
REMARK  217  A    between atoms: _558  and  _560
REMARK  218  A    between atoms: _560  and  _561
REMARK  219  A    between atoms: _560  and  _563
REMARK  220  A    between atoms: _563  and  _564
REMARK  221  A    between atoms: _567  and  _569
REMARK  222  A    between atoms: _569  and  _570
REMARK  223  A    between atoms: _569  and  _572
REMARK  224  A    between atoms: _572  and  _573
REMARK  225  A    between atoms: _578  and  _579
REMARK  226  A    between atoms: _581  and  _583
REMARK  227  A    between atoms: _583  and  _584
REMARK  228  A    between atoms: _586  and  _588
REMARK  229  A    between atoms: _588  and  _589
REMARK  230  A    between atoms: _592  and  _594
REMARK  231  A    between atoms: _594  and  _595
REMARK  232  A    between atoms: _594  and  _597
REMARK  233  A    between atoms: _597  and  _598
REMARK  234  A    between atoms: _601  and  _603
REMARK  235  A    between atoms: _603  and  _604
REMARK  236  A    between atoms: _603  and  _606
REMARK  237  A    between atoms: _606  and  _607
REMARK  238  A    between atoms: _609  and  _611
REMARK  239  A    between atoms: _611  and  _612
REMARK  240  A    between atoms: _611  and  _614
REMARK  241  A    between atoms: _617  and  _619
REMARK  242  A    between atoms: _619  and  _620
REMARK  243  A    between atoms: _619  and  _622
REMARK  244  A    between atoms: _622  and  _623
REMARK  245  A    between atoms: _628  and  _630
REMARK  246  A    between atoms: _630  and  _631
REMARK  247  A    between atoms: _630  and  _633
REMARK  248  A    between atoms: _633  and  _634
REMARK  249  A    between atoms: _644  and  _646
REMARK  250  A    between atoms: _646  and  _647
REMARK  251  A    between atoms: _646  and  _649
REMARK  252  A    between atoms: _649  and  _650
REMARK  253  A    between atoms: _650  and  _651
REMARK  254  A    between atoms: _653  and  _655
REMARK  255  A    between atoms: _655  and  _656
REMARK  256  A    between atoms: _655  and  _658
REMARK  257  A    between atoms: _658  and  _659
REMARK  258  A    between atoms: _662  and  _664
REMARK  259  A    between atoms: _664  and  _665
REMARK  260  A    between atoms: _664  and  _667
REMARK  261  A    between atoms: _667  and  _668
REMARK  262  A    between atoms: _673  and  _675
REMARK  263  A    between atoms: _675  and  _676
REMARK  264  A    between atoms: _678  and  _680
REMARK  265  A    between atoms: _680  and  _681
REMARK  266  A    between atoms: _680  and  _683
REMARK  267  A    between atoms: _683  and  _684
REMARK  268  A    between atoms: _689  and  _690
REMARK  269  A    between atoms: _692  and  _694
REMARK  270  A    between atoms: _694  and  _695
REMARK  271  A    between atoms: _694  and  _697
REMARK  272  A    between atoms: _697  and  _698
REMARK  273  A    between atoms: _698  and  _699
REMARK  274  A    between atoms: _702  and  _704
REMARK  275  A    between atoms: _704  and  _705
REMARK  276  A    between atoms: _704  and  _707
REMARK  277  A    between atoms: _707  and  _708
REMARK                            x       y       z     vdW  Elec       q    Type
REMARK                         _______ _______ _______ _____ _____    ______ ____
ROOT
ATOM      1  O   HOH     1      11.725  67.073  67.401  0.00  0.00    +0.000 OA
ENDROOT
TORSDOF 0
REMARK  Name = ../refined-set-2016/1h22/1h22_pocket.pdb
REMARK  277 active torsions:
REMARK  status: ('A' for Active; 'I' for Inactive)
REMARK    1  A    between atoms: _1  and  _3
REMARK    2  A    between atoms: _3  and  _4
REMARK    3  A    between atoms: _3  and  _6
REMARK    4  A    between atoms: _6  and  _7
REMARK    5  A    between atoms: _7  and  _8
REMARK    6  A    between atoms: _13  and  _15
REMARK    7  A    between atoms: _15  and  _16
REMARK    8  A    between atoms: _15  and  _18
REMARK    9  A    between atoms: _18  and  _19
REMARK   10  A    between atoms: _24  and  _25
REMARK   11  A    between atoms: _27  and  _29
REMARK   12  A    between atoms: _29  and  _30
REMARK   13  A    between atoms: _29  and  _32
REMARK   14  A    between atoms: _35  and  _37
REMARK   15  A    between atoms: _37  and  _38
REMARK   16  A    between atoms: _37  and  _40
REMARK   17  A    between atoms: _40  and  _41
REMARK   18  A    between atoms: _44  and  _46
REMARK   19  A    between atoms: _46  and  _47
REMARK   20  A    between atoms: _46  and  _49
REMARK   21  A    between atoms: _49  and  _50
REMARK   22  A    between atoms: _50  and  _51
REMARK   23  A    between atoms: _54  and  _56
REMARK   24  A    between atoms: _56  and  _57
REMARK   25  A    between atoms: _56  and  _59
REMARK   26  A    between atoms: _59  and  _60
REMARK   27  A    between atoms: _60  and  _61
REMARK   28  A    between atoms: _66  and  _68
REMARK   29  A    between atoms: _68  and  _69
REMARK   30  A    between atoms: _68  and  _71
REMARK   31  A    between atoms: _71  and  _72
REMARK   32  A    between atoms: _78  and  _80
REMARK   33  A    between atoms: _80  and  _81
REMARK   34  A    between atoms: _83  and  _85
REMARK   35  A    between atoms: _85  and  _86
REMARK   36  A    between atoms: _85  and  _88
REMARK   37  A    between atoms: _88  and  _89
REMARK   38  A    between atoms: _91  and  _93
REMARK   39  A    between atoms: _93  and  _94
REMARK   40  A    between atoms: _93  and  _96
REMARK   41  A    between atoms: _96  and  _97
REMARK   42  A    between atoms: _97  and  _98
REMARK   43  A    between atoms: _100  and  _102
REMARK   44  A    between atoms: _102  and  _103
REMARK   45  A    between atoms: _102  and  _105
REMARK   46  A    between atoms: _105  and  _106
REMARK   47  A    between atoms: _116  and  _118
REMARK   48  A    between atoms: _118  and  _119
REMARK   49  A    between atoms: _118  and  _121
REMARK   50  A    between atoms: _121  and  _122
REMARK   51  A    between atoms: _128  and  _129
REMARK   52  A    between atoms: _134  and  _136
REMARK   53  A    between atoms: _136  and  _137
REMARK   54  A    between atoms: _136  and  _139
REMARK   55  A    between atoms: _139  and  _140
REMARK   56  A    between atoms: _150  and  _152
REMARK   57  A    between atoms: _152  and  _153
REMARK   58  A    between atoms: _152  and  _155
REMARK   59  A    between atoms: _155  and  _156
REMARK   60  A    between atoms: _159  and  _161
REMARK   61  A    between atoms: _161  and  _162
REMARK   62  A    between atoms: _161  and  _164
REMARK   63  A    between atoms: _164  and  _165
REMARK   64  A    between atoms: _170  and  _171
REMARK   65  A    between atoms: _173  and  _175
REMARK   66  A    between atoms: _175  and  _176
REMARK   67  A    between atoms: _178  and  _180
REMARK   68  A    between atoms: _180  and  _181
REMARK   69  A    between atoms: _183  and  _185
REMARK   70  A    between atoms: _185  and  _186
REMARK   71  A    between atoms: _188  and  _190
REMARK   72  A    between atoms: _190  and  _191
REMARK   73  A    between atoms: _190  and  _193
REMARK   74  A    between atoms: _193  and  _194
REMARK   75  A    between atoms: _200  and  _202
REMARK   76  A    between atoms: _202  and  _203
REMARK   77  A    between atoms: _202  and  _205
REMARK   78  A    between atoms: _205  and  _206
REMARK   79  A    between atoms: _211  and  _212
REMARK   80  A    between atoms: _214  and  _216
REMARK   81  A    between atoms: _216  and  _217
REMARK   82  A    between atoms: _216  and  _219
REMARK   83  A    between atoms: _219  and  _220
REMARK   84  A    between atoms: _222  and  _224
REMARK   85  A    between atoms: _224  and  _225
REMARK   86  A    between atoms: _227  and  _229
REMARK   87  A    between atoms: _229  and  _230
REMARK   88  A    between atoms: _229  and  _232
REMARK   89  A    between atoms: _232  and  _233
REMARK   90  A    between atoms: _235  and  _237
REMARK   91  A    between atoms: _237  and  _238
REMARK   92  A    between atoms: _237  and  _240
REMARK   93  A    between atoms: _240  and  _241
REMARK   94  A    between atoms: _243  and  _245
REMARK   95  A    between atoms: _245  and  _246
REMARK   96  A    between atoms: _245  and  _248
REMARK   97  A    between atoms: _248  and  _249
REMARK   98  A    between atoms: _252  and  _254
REMARK   99  A    between atoms: _254  and  _255
REMARK  100  A    between atoms: _254  and  _257
REMARK  101  A    between atoms: _257  and  _258
REMARK  102  A    between atoms: _261  and  _263
REMARK  103  A    between atoms: _263  and  _264
REMARK  104  A    between atoms: _263  and  _266
REMARK  105  A    between atoms: _269  and  _271
REMARK  106  A    between atoms: _271  and  _272
REMARK  107  A    between atoms: _271  and  _274
REMARK  108  A    between atoms: _274  and  _275
REMARK  109  A    between atoms: _280  and  _281
REMARK  110  A    between atoms: _283  and  _285
REMARK  111  A    between atoms: _285  and  _286
REMARK  112  A    between atoms: _285  and  _288
REMARK  113  A    between atoms: _288  and  _289
REMARK  114  A    between atoms: _294  and  _295
REMARK  115  A    between atoms: _297  and  _299
REMARK  116  A    between atoms: _299  and  _300
REMARK  117  A    between atoms: _299  and  _302
REMARK  118  A    between atoms: _305  and  _307
REMARK  119  A    between atoms: _307  and  _308
REMARK  120  A    between atoms: _307  and  _310
REMARK  121  A    between atoms: _310  and  _311
REMARK  122  A    between atoms: _311  and  _312
REMARK  123  A    between atoms: _315  and  _317
REMARK  124  A    between atoms: _317  and  _318
REMARK  125  A    between atoms: _317  and  _320
REMARK  126  A    between atoms: _320  and  _321
REMARK  127  A    between atoms: _323  and  _325
REMARK  128  A    between atoms: _325  and  _326
REMARK  129  A    between atoms: _329  and  _331
REMARK  130  A    between atoms: _331  and  _332
REMARK  131  A    between atoms: _334  and  _336
REMARK  132  A    between atoms: _336  and  _337
REMARK  133  A    between atoms: _336  and  _339
REMARK  134  A    between atoms: _339  and  _340
REMARK  135  A    between atoms: _342  and  _344
REMARK  136  A    between atoms: _344  and  _345
REMARK  137  A    between atoms: _344  and  _347
REMARK  138  A    between atoms: _347  and  _348
REMARK  139  A    between atoms: _358  and  _360
REMARK  140  A    between atoms: _360  and  _361
REMARK  141  A    between atoms: _360  and  _363
REMARK  142  A    between atoms: _363  and  _364
REMARK  143  A    between atoms: _364  and  _365
REMARK  144  A    between atoms: _368  and  _370
REMARK  145  A    between atoms: _370  and  _371
REMARK  146  A    between atoms: _370  and  _373
REMARK  147  A    between atoms: _373  and  _374
REMARK  148  A    between atoms: _384  and  _386
REMARK  149  A    between atoms: _386  and  _387
REMARK  150  A    between atoms: _386  and  _389
REMARK  151  A    between atoms: _389  and  _390
REMARK  152  A    between atoms: _395  and  _397
REMARK  153  A    between atoms: _397  and  _398
REMARK  154  A    between atoms: _397  and  _400
REMARK  155  A    between atoms: _400  and  _401
REMARK  156  A    between atoms: _404  and  _406
REMARK  157  A    between atoms: _406  and  _407
REMARK  158  A    between atoms: _406  and  _409
REMARK  159  A    between atoms: _409  and  _410
REMARK  160  A    between atoms: _416  and  _418
REMARK  161  A    between atoms: _418  and  _419
REMARK  162  A    between atoms: _418  and  _421
REMARK  163  A    between atoms: _421  and  _422
REMARK  164  A    between atoms: _425  and  _427
REMARK  165  A    between atoms: _427  and  _428
REMARK  166  A    between atoms: _427  and  _430
REMARK  167  A    between atoms: _430  and  _431
REMARK  168  A    between atoms: _433  and  _435
REMARK  169  A    between atoms: _435  and  _436
REMARK  170  A    between atoms: _435  and  _438
REMARK  171  A    between atoms: _438  and  _439
REMARK  172  A    between atoms: _442  and  _444
REMARK  173  A    between atoms: _444  and  _445
REMARK  174  A    between atoms: _444  and  _447
REMARK  175  A    between atoms: _447  and  _448
REMARK  176  A    between atoms: _454  and  _456
REMARK  177  A    between atoms: _456  and  _457
REMARK  178  A    between atoms: _456  and  _459
REMARK  179  A    between atoms: _459  and  _460
REMARK  180  A    between atoms: _460  and  _461
REMARK  181  A    between atoms: _461  and  _462
REMARK  182  A    between atoms: _471  and  _473
REMARK  183  A    between atoms: _473  and  _474
REMARK  184  A    between atoms: _473  and  _476
REMARK  185  A    between atoms: _476  and  _477
REMARK  186  A    between atoms: _483  and  _485
REMARK  187  A    between atoms: _485  and  _486
REMARK  188  A    between atoms: _485  and  _488
REMARK  189  A    between atoms: _488  and  _489
REMARK  190  A    between atoms: _491  and  _493
REMARK  191  A    between atoms: _493  and  _494
REMARK  192  A    between atoms: _493  and  _496
REMARK  193  A    between atoms: _496  and  _497
REMARK  194  A    between atoms: _502  and  _504
REMARK  195  A    between atoms: _504  and  _505
REMARK  196  A    between atoms: _504  and  _507
REMARK  197  A    between atoms: _507  and  _508
REMARK  198  A    between atoms: _508  and  _509
REMARK  199  A    between atoms: _512  and  _514
REMARK  200  A    between atoms: _514  and  _515
REMARK  201  A    between atoms: _517  and  _519
REMARK  202  A    between atoms: _519  and  _520
REMARK  203  A    between atoms: _519  and  _522
REMARK  204  A    between atoms: _522  and  _523
REMARK  205  A    between atoms: _525  and  _527
REMARK  206  A    between atoms: _527  and  _528
REMARK  207  A    between atoms: _527  and  _530
REMARK  208  A    between atoms: _530  and  _531
REMARK  209  A    between atoms: _537  and  _539
REMARK  210  A    between atoms: _539  and  _540
REMARK  211  A    between atoms: _539  and  _542
REMARK  212  A    between atoms: _542  and  _543
REMARK  213  A    between atoms: _549  and  _551
REMARK  214  A    between atoms: _551  and  _552
REMARK  215  A    between atoms: _551  and  _554
REMARK  216  A    between atoms: _554  and  _555
REMARK  217  A    between atoms: _558  and  _560
REMARK  218  A    between atoms: _560  and  _561
REMARK  219  A    between atoms: _560  and  _563
REMARK  220  A    between atoms: _563  and  _564
REMARK  221  A    between atoms: _567  and  _569
REMARK  222  A    between atoms: _569  and  _570
REMARK  223  A    between atoms: _569  and  _572
REMARK  224  A    between atoms: _572  and  _573
REMARK  225  A    between atoms: _578  and  _579
REMARK  226  A    between atoms: _581  and  _583
REMARK  227  A    between atoms: _583  and  _584
REMARK  228  A    between atoms: _586  and  _588
REMARK  229  A    between atoms: _588  and  _589
REMARK  230  A    between atoms: _592  and  _594
REMARK  231  A    between atoms: _594  and  _595
REMARK  232  A    between atoms: _594  and  _597
REMARK  233  A    between atoms: _597  and  _598
REMARK  234  A    between atoms: _601  and  _603
REMARK  235  A    between atoms: _603  and  _604
REMARK  236  A    between atoms: _603  and  _606
REMARK  237  A    between atoms: _606  and  _607
REMARK  238  A    between atoms: _609  and  _611
REMARK  239  A    between atoms: _611  and  _612
REMARK  240  A    between atoms: _611  and  _614
REMARK  241  A    between atoms: _617  and  _619
REMARK  242  A    between atoms: _619  and  _620
REMARK  243  A    between atoms: _619  and  _622
REMARK  244  A    between atoms: _622  and  _623
REMARK  245  A    between atoms: _628  and  _630
REMARK  246  A    between atoms: _630  and  _631
REMARK  247  A    between atoms: _630  and  _633
REMARK  248  A    between atoms: _633  and  _634
REMARK  249  A    between atoms: _644  and  _646
REMARK  250  A    between atoms: _646  and  _647
REMARK  251  A    between atoms: _646  and  _649
REMARK  252  A    between atoms: _649  and  _650
REMARK  253  A    between atoms: _650  and  _651
REMARK  254  A    between atoms: _653  and  _655
REMARK  255  A    between atoms: _655  and  _656
REMARK  256  A    between atoms: _655  and  _658
REMARK  257  A    between atoms: _658  and  _659
REMARK  258  A    between atoms: _662  and  _664
REMARK  259  A    between atoms: _664  and  _665
REMARK  260  A    between atoms: _664  and  _667
REMARK  261  A    between atoms: _667  and  _668
REMARK  262  A    between atoms: _673  and  _675
REMARK  263  A    between atoms: _675  and  _676
REMARK  264  A    between atoms: _678  and  _680
REMARK  265  A    between atoms: _680  and  _681
REMARK  266  A    between atoms: _680  and  _683
REMARK  267  A    between atoms: _683  and  _684
REMARK  268  A    between atoms: _689  and  _690
REMARK  269  A    between atoms: _692  and  _694
REMARK  270  A    between atoms: _694  and  _695
REMARK  271  A    between atoms: _694  and  _697
REMARK  272  A    between atoms: _697  and  _698
REMARK  273  A    between atoms: _698  and  _699
REMARK  274  A    between atoms: _702  and  _704
REMARK  275  A    between atoms: _704  and  _705
REMARK  276  A    between atoms: _704  and  _707
REMARK  277  A    between atoms: _707  and  _708
REMARK                            x       y       z     vdW  Elec       q    Type
REMARK                         _______ _______ _______ _____ _____    ______ ____
ROOT
ATOM      1  O   HOH     1       4.580  57.554  76.010  0.00  0.00    +0.000 OA
ENDROOT
TORSDOF 0
REMARK  Name = ../refined-set-2016/1h22/1h22_pocket.pdb
REMARK  277 active torsions:
REMARK  status: ('A' for Active; 'I' for Inactive)
REMARK    1  A    between atoms: _1  and  _3
REMARK    2  A    between atoms: _3  and  _4
REMARK    3  A    between atoms: _3  and  _6
REMARK    4  A    between atoms: _6  and  _7
REMARK    5  A    between atoms: _7  and  _8
REMARK    6  A    between atoms: _13  and  _15
REMARK    7  A    between atoms: _15  and  _16
REMARK    8  A    between atoms: _15  and  _18
REMARK    9  A    between atoms: _18  and  _19
REMARK   10  A    between atoms: _24  and  _25
REMARK   11  A    between atoms: _27  and  _29
REMARK   12  A    between atoms: _29  and  _30
REMARK   13  A    between atoms: _29  and  _32
REMARK   14  A    between atoms: _35  and  _37
REMARK   15  A    between atoms: _37  and  _38
REMARK   16  A    between atoms: _37  and  _40
REMARK   17  A    between atoms: _40  and  _41
REMARK   18  A    between atoms: _44  and  _46
REMARK   19  A    between atoms: _46  and  _47
REMARK   20  A    between atoms: _46  and  _49
REMARK   21  A    between atoms: _49  and  _50
REMARK   22  A    between atoms: _50  and  _51
REMARK   23  A    between atoms: _54  and  _56
REMARK   24  A    between atoms: _56  and  _57
REMARK   25  A    between atoms: _56  and  _59
REMARK   26  A    between atoms: _59  and  _60
REMARK   27  A    between atoms: _60  and  _61
REMARK   28  A    between atoms: _66  and  _68
REMARK   29  A    between atoms: _68  and  _69
REMARK   30  A    between atoms: _68  and  _71
REMARK   31  A    between atoms: _71  and  _72
REMARK   32  A    between atoms: _78  and  _80
REMARK   33  A    between atoms: _80  and  _81
REMARK   34  A    between atoms: _83  and  _85
REMARK   35  A    between atoms: _85  and  _86
REMARK   36  A    between atoms: _85  and  _88
REMARK   37  A    between atoms: _88  and  _89
REMARK   38  A    between atoms: _91  and  _93
REMARK   39  A    between atoms: _93  and  _94
REMARK   40  A    between atoms: _93  and  _96
REMARK   41  A    between atoms: _96  and  _97
REMARK   42  A    between atoms: _97  and  _98
REMARK   43  A    between atoms: _100  and  _102
REMARK   44  A    between atoms: _102  and  _103
REMARK   45  A    between atoms: _102  and  _105
REMARK   46  A    between atoms: _105  and  _106
REMARK   47  A    between atoms: _116  and  _118
REMARK   48  A    between atoms: _118  and  _119
REMARK   49  A    between atoms: _118  and  _121
REMARK   50  A    between atoms: _121  and  _122
REMARK   51  A    between atoms: _128  and  _129
REMARK   52  A    between atoms: _134  and  _136
REMARK   53  A    between atoms: _136  and  _137
REMARK   54  A    between atoms: _136  and  _139
REMARK   55  A    between atoms: _139  and  _140
REMARK   56  A    between atoms: _150  and  _152
REMARK   57  A    between atoms: _152  and  _153
REMARK   58  A    between atoms: _152  and  _155
REMARK   59  A    between atoms: _155  and  _156
REMARK   60  A    between atoms: _159  and  _161
REMARK   61  A    between atoms: _161  and  _162
REMARK   62  A    between atoms: _161  and  _164
REMARK   63  A    between atoms: _164  and  _165
REMARK   64  A    between atoms: _170  and  _171
REMARK   65  A    between atoms: _173  and  _175
REMARK   66  A    between atoms: _175  and  _176
REMARK   67  A    between atoms: _178  and  _180
REMARK   68  A    between atoms: _180  and  _181
REMARK   69  A    between atoms: _183  and  _185
REMARK   70  A    between atoms: _185  and  _186
REMARK   71  A    between atoms: _188  and  _190
REMARK   72  A    between atoms: _190  and  _191
REMARK   73  A    between atoms: _190  and  _193
REMARK   74  A    between atoms: _193  and  _194
REMARK   75  A    between atoms: _200  and  _202
REMARK   76  A    between atoms: _202  and  _203
REMARK   77  A    between atoms: _202  and  _205
REMARK   78  A    between atoms: _205  and  _206
REMARK   79  A    between atoms: _211  and  _212
REMARK   80  A    between atoms: _214  and  _216
REMARK   81  A    between atoms: _216  and  _217
REMARK   82  A    between atoms: _216  and  _219
REMARK   83  A    between atoms: _219  and  _220
REMARK   84  A    between atoms: _222  and  _224
REMARK   85  A    between atoms: _224  and  _225
REMARK   86  A    between atoms: _227  and  _229
REMARK   87  A    between atoms: _229  and  _230
REMARK   88  A    between atoms: _229  and  _232
REMARK   89  A    between atoms: _232  and  _233
REMARK   90  A    between atoms: _235  and  _237
REMARK   91  A    between atoms: _237  and  _238
REMARK   92  A    between atoms: _237  and  _240
REMARK   93  A    between atoms: _240  and  _241
REMARK   94  A    between atoms: _243  and  _245
REMARK   95  A    between atoms: _245  and  _246
REMARK   96  A    between atoms: _245  and  _248
REMARK   97  A    between atoms: _248  and  _249
REMARK   98  A    between atoms: _252  and  _254
REMARK   99  A    between atoms: _254  and  _255
REMARK  100  A    between atoms: _254  and  _257
REMARK  101  A    between atoms: _257  and  _258
REMARK  102  A    between atoms: _261  and  _263
REMARK  103  A    between atoms: _263  and  _264
REMARK  104  A    between atoms: _263  and  _266
REMARK  105  A    between atoms: _269  and  _271
REMARK  106  A    between atoms: _271  and  _272
REMARK  107  A    between atoms: _271  and  _274
REMARK  108  A    between atoms: _274  and  _275
REMARK  109  A    between atoms: _280  and  _281
REMARK  110  A    between atoms: _283  and  _285
REMARK  111  A    between atoms: _285  and  _286
REMARK  112  A    between atoms: _285  and  _288
REMARK  113  A    between atoms: _288  and  _289
REMARK  114  A    between atoms: _294  and  _295
REMARK  115  A    between atoms: _297  and  _299
REMARK  116  A    between atoms: _299  and  _300
REMARK  117  A    between atoms: _299  and  _302
REMARK  118  A    between atoms: _305  and  _307
REMARK  119  A    between atoms: _307  and  _308
REMARK  120  A    between atoms: _307  and  _310
REMARK  121  A    between atoms: _310  and  _311
REMARK  122  A    between atoms: _311  and  _312
REMARK  123  A    between atoms: _315  and  _317
REMARK  124  A    between atoms: _317  and  _318
REMARK  125  A    between atoms: _317  and  _320
REMARK  126  A    between atoms: _320  and  _321
REMARK  127  A    between atoms: _323  and  _325
REMARK  128  A    between atoms: _325  and  _326
REMARK  129  A    between atoms: _329  and  _331
REMARK  130  A    between atoms: _331  and  _332
REMARK  131  A    between atoms: _334  and  _336
REMARK  132  A    between atoms: _336  and  _337
REMARK  133  A    between atoms: _336  and  _339
REMARK  134  A    between atoms: _339  and  _340
REMARK  135  A    between atoms: _342  and  _344
REMARK  136  A    between atoms: _344  and  _345
REMARK  137  A    between atoms: _344  and  _347
REMARK  138  A    between atoms: _347  and  _348
REMARK  139  A    between atoms: _358  and  _360
REMARK  140  A    between atoms: _360  and  _361
REMARK  141  A    between atoms: _360  and  _363
REMARK  142  A    between atoms: _363  and  _364
REMARK  143  A    between atoms: _364  and  _365
REMARK  144  A    between atoms: _368  and  _370
REMARK  145  A    between atoms: _370  and  _371
REMARK  146  A    between atoms: _370  and  _373
REMARK  147  A    between atoms: _373  and  _374
REMARK  148  A    between atoms: _384  and  _386
REMARK  149  A    between atoms: _386  and  _387
REMARK  150  A    between atoms: _386  and  _389
REMARK  151  A    between atoms: _389  and  _390
REMARK  152  A    between atoms: _395  and  _397
REMARK  153  A    between atoms: _397  and  _398
REMARK  154  A    between atoms: _397  and  _400
REMARK  155  A    between atoms: _400  and  _401
REMARK  156  A    between atoms: _404  and  _406
REMARK  157  A    between atoms: _406  and  _407
REMARK  158  A    between atoms: _406  and  _409
REMARK  159  A    between atoms: _409  and  _410
REMARK  160  A    between atoms: _416  and  _418
REMARK  161  A    between atoms: _418  and  _419
REMARK  162  A    between atoms: _418  and  _421
REMARK  163  A    between atoms: _421  and  _422
REMARK  164  A    between atoms: _425  and  _427
REMARK  165  A    between atoms: _427  and  _428
REMARK  166  A    between atoms: _427  and  _430
REMARK  167  A    between atoms: _430  and  _431
REMARK  168  A    between atoms: _433  and  _435
REMARK  169  A    between atoms: _435  and  _436
REMARK  170  A    between atoms: _435  and  _438
REMARK  171  A    between atoms: _438  and  _439
REMARK  172  A    between atoms: _442  and  _444
REMARK  173  A    between atoms: _444  and  _445
REMARK  174  A    between atoms: _444  and  _447
REMARK  175  A    between atoms: _447  and  _448
REMARK  176  A    between atoms: _454  and  _456
REMARK  177  A    between atoms: _456  and  _457
REMARK  178  A    between atoms: _456  and  _459
REMARK  179  A    between atoms: _459  and  _460
REMARK  180  A    between atoms: _460  and  _461
REMARK  181  A    between atoms: _461  and  _462
REMARK  182  A    between atoms: _471  and  _473
REMARK  183  A    between atoms: _473  and  _474
REMARK  184  A    between atoms: _473  and  _476
REMARK  185  A    between atoms: _476  and  _477
REMARK  186  A    between atoms: _483  and  _485
REMARK  187  A    between atoms: _485  and  _486
REMARK  188  A    between atoms: _485  and  _488
REMARK  189  A    between atoms: _488  and  _489
REMARK  190  A    between atoms: _491  and  _493
REMARK  191  A    between atoms: _493  and  _494
REMARK  192  A    between atoms: _493  and  _496
REMARK  193  A    between atoms: _496  and  _497
REMARK  194  A    between atoms: _502  and  _504
REMARK  195  A    between atoms: _504  and  _505
REMARK  196  A    between atoms: _504  and  _507
REMARK  197  A    between atoms: _507  and  _508
REMARK  198  A    between atoms: _508  and  _509
REMARK  199  A    between atoms: _512  and  _514
REMARK  200  A    between atoms: _514  and  _515
REMARK  201  A    between atoms: _517  and  _519
REMARK  202  A    between atoms: _519  and  _520
REMARK  203  A    between atoms: _519  and  _522
REMARK  204  A    between atoms: _522  and  _523
REMARK  205  A    between atoms: _525  and  _527
REMARK  206  A    between atoms: _527  and  _528
REMARK  207  A    between atoms: _527  and  _530
REMARK  208  A    between atoms: _530  and  _531
REMARK  209  A    between atoms: _537  and  _539
REMARK  210  A    between atoms: _539  and  _540
REMARK  211  A    between atoms: _539  and  _542
REMARK  212  A    between atoms: _542  and  _543
REMARK  213  A    between atoms: _549  and  _551
REMARK  214  A    between atoms: _551  and  _552
REMARK  215  A    between atoms: _551  and  _554
REMARK  216  A    between atoms: _554  and  _555
REMARK  217  A    between atoms: _558  and  _560
REMARK  218  A    between atoms: _560  and  _561
REMARK  219  A    between atoms: _560  and  _563
REMARK  220  A    between atoms: _563  and  _564
REMARK  221  A    between atoms: _567  and  _569
REMARK  222  A    between atoms: _569  and  _570
REMARK  223  A    between atoms: _569  and  _572
REMARK  224  A    between atoms: _572  and  _573
REMARK  225  A    between atoms: _578  and  _579
REMARK  226  A    between atoms: _581  and  _583
REMARK  227  A    between atoms: _583  and  _584
REMARK  228  A    between atoms: _586  and  _588
REMARK  229  A    between atoms: _588  and  _589
REMARK  230  A    between atoms: _592  and  _594
REMARK  231  A    between atoms: _594  and  _595
REMARK  232  A    between atoms: _594  and  _597
REMARK  233  A    between atoms: _597  and  _598
REMARK  234  A    between atoms: _601  and  _603
REMARK  235  A    between atoms: _603  and  _604
REMARK  236  A    between atoms: _603  and  _606
REMARK  237  A    between atoms: _606  and  _607
REMARK  238  A    between atoms: _609  and  _611
REMARK  239  A    between atoms: _611  and  _612
REMARK  240  A    between atoms: _611  and  _614
REMARK  241  A    between atoms: _617  and  _619
REMARK  242  A    between atoms: _619  and  _620
REMARK  243  A    between atoms: _619  and  _622
REMARK  244  A    between atoms: _622  and  _623
REMARK  245  A    between atoms: _628  and  _630
REMARK  246  A    between atoms: _630  and  _631
REMARK  247  A    between atoms: _630  and  _633
REMARK  248  A    between atoms: _633  and  _634
REMARK  249  A    between atoms: _644  and  _646
REMARK  250  A    between atoms: _646  and  _647
REMARK  251  A    between atoms: _646  and  _649
REMARK  252  A    between atoms: _649  and  _650
REMARK  253  A    between atoms: _650  and  _651
REMARK  254  A    between atoms: _653  and  _655
REMARK  255  A    between atoms: _655  and  _656
REMARK  256  A    between atoms: _655  and  _658
REMARK  257  A    between atoms: _658  and  _659
REMARK  258  A    between atoms: _662  and  _664
REMARK  259  A    between atoms: _664  and  _665
REMARK  260  A    between atoms: _664  and  _667
REMARK  261  A    between atoms: _667  and  _668
REMARK  262  A    between atoms: _673  and  _675
REMARK  263  A    between atoms: _675  and  _676
REMARK  264  A    between atoms: _678  and  _680
REMARK  265  A    between atoms: _680  and  _681
REMARK  266  A    between atoms: _680  and  _683
REMARK  267  A    between atoms: _683  and  _684
REMARK  268  A    between atoms: _689  and  _690
REMARK  269  A    between atoms: _692  and  _694
REMARK  270  A    between atoms: _694  and  _695
REMARK  271  A    between atoms: _694  and  _697
REMARK  272  A    between atoms: _697  and  _698
REMARK  273  A    between atoms: _698  and  _699
REMARK  274  A    between atoms: _702  and  _704
REMARK  275  A    between atoms: _704  and  _705
REMARK  276  A    between atoms: _704  and  _707
REMARK  277  A    between atoms: _707  and  _708
REMARK                            x       y       z     vdW  Elec       q    Type
REMARK                         _______ _______ _______ _____ _____    ______ ____
ROOT
ATOM      1  O   HOH     1       7.437  63.394  78.915  0.00  0.00    +0.000 OA
ENDROOT
TORSDOF 0
REMARK  Name = ../refined-set-2016/1h22/1h22_pocket.pdb
REMARK  277 active torsions:
REMARK  status: ('A' for Active; 'I' for Inactive)
REMARK    1  A    between atoms: _1  and  _3
REMARK    2  A    between atoms: _3  and  _4
REMARK    3  A    between atoms: _3  and  _6
REMARK    4  A    between atoms: _6  and  _7
REMARK    5  A    between atoms: _7  and  _8
REMARK    6  A    between atoms: _13  and  _15
REMARK    7  A    between atoms: _15  and  _16
REMARK    8  A    between atoms: _15  and  _18
REMARK    9  A    between atoms: _18  and  _19
REMARK   10  A    between atoms: _24  and  _25
REMARK   11  A    between atoms: _27  and  _29
REMARK   12  A    between atoms: _29  and  _30
REMARK   13  A    between atoms: _29  and  _32
REMARK   14  A    between atoms: _35  and  _37
REMARK   15  A    between atoms: _37  and  _38
REMARK   16  A    between atoms: _37  and  _40
REMARK   17  A    between atoms: _40  and  _41
REMARK   18  A    between atoms: _44  and  _46
REMARK   19  A    between atoms: _46  and  _47
REMARK   20  A    between atoms: _46  and  _49
REMARK   21  A    between atoms: _49  and  _50
REMARK   22  A    between atoms: _50  and  _51
REMARK   23  A    between atoms: _54  and  _56
REMARK   24  A    between atoms: _56  and  _57
REMARK   25  A    between atoms: _56  and  _59
REMARK   26  A    between atoms: _59  and  _60
REMARK   27  A    between atoms: _60  and  _61
REMARK   28  A    between atoms: _66  and  _68
REMARK   29  A    between atoms: _68  and  _69
REMARK   30  A    between atoms: _68  and  _71
REMARK   31  A    between atoms: _71  and  _72
REMARK   32  A    between atoms: _78  and  _80
REMARK   33  A    between atoms: _80  and  _81
REMARK   34  A    between atoms: _83  and  _85
REMARK   35  A    between atoms: _85  and  _86
REMARK   36  A    between atoms: _85  and  _88
REMARK   37  A    between atoms: _88  and  _89
REMARK   38  A    between atoms: _91  and  _93
REMARK   39  A    between atoms: _93  and  _94
REMARK   40  A    between atoms: _93  and  _96
REMARK   41  A    between atoms: _96  and  _97
REMARK   42  A    between atoms: _97  and  _98
REMARK   43  A    between atoms: _100  and  _102
REMARK   44  A    between atoms: _102  and  _103
REMARK   45  A    between atoms: _102  and  _105
REMARK   46  A    between atoms: _105  and  _106
REMARK   47  A    between atoms: _116  and  _118
REMARK   48  A    between atoms: _118  and  _119
REMARK   49  A    between atoms: _118  and  _121
REMARK   50  A    between atoms: _121  and  _122
REMARK   51  A    between atoms: _128  and  _129
REMARK   52  A    between atoms: _134  and  _136
REMARK   53  A    between atoms: _136  and  _137
REMARK   54  A    between atoms: _136  and  _139
REMARK   55  A    between atoms: _139  and  _140
REMARK   56  A    between atoms: _150  and  _152
REMARK   57  A    between atoms: _152  and  _153
REMARK   58  A    between atoms: _152  and  _155
REMARK   59  A    between atoms: _155  and  _156
REMARK   60  A    between atoms: _159  and  _161
REMARK   61  A    between atoms: _161  and  _162
REMARK   62  A    between atoms: _161  and  _164
REMARK   63  A    between atoms: _164  and  _165
REMARK   64  A    between atoms: _170  and  _171
REMARK   65  A    between atoms: _173  and  _175
REMARK   66  A    between atoms: _175  and  _176
REMARK   67  A    between atoms: _178  and  _180
REMARK   68  A    between atoms: _180  and  _181
REMARK   69  A    between atoms: _183  and  _185
REMARK   70  A    between atoms: _185  and  _186
REMARK   71  A    between atoms: _188  and  _190
REMARK   72  A    between atoms: _190  and  _191
REMARK   73  A    between atoms: _190  and  _193
REMARK   74  A    between atoms: _193  and  _194
REMARK   75  A    between atoms: _200  and  _202
REMARK   76  A    between atoms: _202  and  _203
REMARK   77  A    between atoms: _202  and  _205
REMARK   78  A    between atoms: _205  and  _206
REMARK   79  A    between atoms: _211  and  _212
REMARK   80  A    between atoms: _214  and  _216
REMARK   81  A    between atoms: _216  and  _217
REMARK   82  A    between atoms: _216  and  _219
REMARK   83  A    between atoms: _219  and  _220
REMARK   84  A    between atoms: _222  and  _224
REMARK   85  A    between atoms: _224  and  _225
REMARK   86  A    between atoms: _227  and  _229
REMARK   87  A    between atoms: _229  and  _230
REMARK   88  A    between atoms: _229  and  _232
REMARK   89  A    between atoms: _232  and  _233
REMARK   90  A    between atoms: _235  and  _237
REMARK   91  A    between atoms: _237  and  _238
REMARK   92  A    between atoms: _237  and  _240
REMARK   93  A    between atoms: _240  and  _241
REMARK   94  A    between atoms: _243  and  _245
REMARK   95  A    between atoms: _245  and  _246
REMARK   96  A    between atoms: _245  and  _248
REMARK   97  A    between atoms: _248  and  _249
REMARK   98  A    between atoms: _252  and  _254
REMARK   99  A    between atoms: _254  and  _255
REMARK  100  A    between atoms: _254  and  _257
REMARK  101  A    between atoms: _257  and  _258
REMARK  102  A    between atoms: _261  and  _263
REMARK  103  A    between atoms: _263  and  _264
REMARK  104  A    between atoms: _263  and  _266
REMARK  105  A    between atoms: _269  and  _271
REMARK  106  A    between atoms: _271  and  _272
REMARK  107  A    between atoms: _271  and  _274
REMARK  108  A    between atoms: _274  and  _275
REMARK  109  A    between atoms: _280  and  _281
REMARK  110  A    between atoms: _283  and  _285
REMARK  111  A    between atoms: _285  and  _286
REMARK  112  A    between atoms: _285  and  _288
REMARK  113  A    between atoms: _288  and  _289
REMARK  114  A    between atoms: _294  and  _295
REMARK  115  A    between atoms: _297  and  _299
REMARK  116  A    between atoms: _299  and  _300
REMARK  117  A    between atoms: _299  and  _302
REMARK  118  A    between atoms: _305  and  _307
REMARK  119  A    between atoms: _307  and  _308
REMARK  120  A    between atoms: _307  and  _310
REMARK  121  A    between atoms: _310  and  _311
REMARK  122  A    between atoms: _311  and  _312
REMARK  123  A    between atoms: _315  and  _317
REMARK  124  A    between atoms: _317  and  _318
REMARK  125  A    between atoms: _317  and  _320
REMARK  126  A    between atoms: _320  and  _321
REMARK  127  A    between atoms: _323  and  _325
REMARK  128  A    between atoms: _325  and  _326
REMARK  129  A    between atoms: _329  and  _331
REMARK  130  A    between atoms: _331  and  _332
REMARK  131  A    between atoms: _334  and  _336
REMARK  132  A    between atoms: _336  and  _337
REMARK  133  A    between atoms: _336  and  _339
REMARK  134  A    between atoms: _339  and  _340
REMARK  135  A    between atoms: _342  and  _344
REMARK  136  A    between atoms: _344  and  _345
REMARK  137  A    between atoms: _344  and  _347
REMARK  138  A    between atoms: _347  and  _348
REMARK  139  A    between atoms: _358  and  _360
REMARK  140  A    between atoms: _360  and  _361
REMARK  141  A    between atoms: _360  and  _363
REMARK  142  A    between atoms: _363  and  _364
REMARK  143  A    between atoms: _364  and  _365
REMARK  144  A    between atoms: _368  and  _370
REMARK  145  A    between atoms: _370  and  _371
REMARK  146  A    between atoms: _370  and  _373
REMARK  147  A    between atoms: _373  and  _374
REMARK  148  A    between atoms: _384  and  _386
REMARK  149  A    between atoms: _386  and  _387
REMARK  150  A    between atoms: _386  and  _389
REMARK  151  A    between atoms: _389  and  _390
REMARK  152  A    between atoms: _395  and  _397
REMARK  153  A    between atoms: _397  and  _398
REMARK  154  A    between atoms: _397  and  _400
REMARK  155  A    between atoms: _400  and  _401
REMARK  156  A    between atoms: _404  and  _406
REMARK  157  A    between atoms: _406  and  _407
REMARK  158  A    between atoms: _406  and  _409
REMARK  159  A    between atoms: _409  and  _410
REMARK  160  A    between atoms: _416  and  _418
REMARK  161  A    between atoms: _418  and  _419
REMARK  162  A    between atoms: _418  and  _421
REMARK  163  A    between atoms: _421  and  _422
REMARK  164  A    between atoms: _425  and  _427
REMARK  165  A    between atoms: _427  and  _428
REMARK  166  A    between atoms: _427  and  _430
REMARK  167  A    between atoms: _430  and  _431
REMARK  168  A    between atoms: _433  and  _435
REMARK  169  A    between atoms: _435  and  _436
REMARK  170  A    between atoms: _435  and  _438
REMARK  171  A    between atoms: _438  and  _439
REMARK  172  A    between atoms: _442  and  _444
REMARK  173  A    between atoms: _444  and  _445
REMARK  174  A    between atoms: _444  and  _447
REMARK  175  A    between atoms: _447  and  _448
REMARK  176  A    between atoms: _454  and  _456
REMARK  177  A    between atoms: _456  and  _457
REMARK  178  A    between atoms: _456  and  _459
REMARK  179  A    between atoms: _459  and  _460
REMARK  180  A    between atoms: _460  and  _461
REMARK  181  A    between atoms: _461  and  _462
REMARK  182  A    between atoms: _471  and  _473
REMARK  183  A    between atoms: _473  and  _474
REMARK  184  A    between atoms: _473  and  _476
REMARK  185  A    between atoms: _476  and  _477
REMARK  186  A    between atoms: _483  and  _485
REMARK  187  A    between atoms: _485  and  _486
REMARK  188  A    between atoms: _485  and  _488
REMARK  189  A    between atoms: _488  and  _489
REMARK  190  A    between atoms: _491  and  _493
REMARK  191  A    between atoms: _493  and  _494
REMARK  192  A    between atoms: _493  and  _496
REMARK  193  A    between atoms: _496  and  _497
REMARK  194  A    between atoms: _502  and  _504
REMARK  195  A    between atoms: _504  and  _505
REMARK  196  A    between atoms: _504  and  _507
REMARK  197  A    between atoms: _507  and  _508
REMARK  198  A    between atoms: _508  and  _509
REMARK  199  A    between atoms: _512  and  _514
REMARK  200  A    between atoms: _514  and  _515
REMARK  201  A    between atoms: _517  and  _519
REMARK  202  A    between atoms: _519  and  _520
REMARK  203  A    between atoms: _519  and  _522
REMARK  204  A    between atoms: _522  and  _523
REMARK  205  A    between atoms: _525  and  _527
REMARK  206  A    between atoms: _527  and  _528
REMARK  207  A    between atoms: _527  and  _530
REMARK  208  A    between atoms: _530  and  _531
REMARK  209  A    between atoms: _537  and  _539
REMARK  210  A    between atoms: _539  and  _540
REMARK  211  A    between atoms: _539  and  _542
REMARK  212  A    between atoms: _542  and  _543
REMARK  213  A    between atoms: _549  and  _551
REMARK  214  A    between atoms: _551  and  _552
REMARK  215  A    between atoms: _551  and  _554
REMARK  216  A    between atoms: _554  and  _555
REMARK  217  A    between atoms: _558  and  _560
REMARK  218  A    between atoms: _560  and  _561
REMARK  219  A    between atoms: _560  and  _563
REMARK  220  A    between atoms: _563  and  _564
REMARK  221  A    between atoms: _567  and  _569
REMARK  222  A    between atoms: _569  and  _570
REMARK  223  A    between atoms: _569  and  _572
REMARK  224  A    between atoms: _572  and  _573
REMARK  225  A    between atoms: _578  and  _579
REMARK  226  A    between atoms: _581  and  _583
REMARK  227  A    between atoms: _583  and  _584
REMARK  228  A    between atoms: _586  and  _588
REMARK  229  A    between atoms: _588  and  _589
REMARK  230  A    between atoms: _592  and  _594
REMARK  231  A    between atoms: _594  and  _595
REMARK  232  A    between atoms: _594  and  _597
REMARK  233  A    between atoms: _597  and  _598
REMARK  234  A    between atoms: _601  and  _603
REMARK  235  A    between atoms: _603  and  _604
REMARK  236  A    between atoms: _603  and  _606
REMARK  237  A    between atoms: _606  and  _607
REMARK  238  A    between atoms: _609  and  _611
REMARK  239  A    between atoms: _611  and  _612
REMARK  240  A    between atoms: _611  and  _614
REMARK  241  A    between atoms: _617  and  _619
REMARK  242  A    between atoms: _619  and  _620
REMARK  243  A    between atoms: _619  and  _622
REMARK  244  A    between atoms: _622  and  _623
REMARK  245  A    between atoms: _628  and  _630
REMARK  246  A    between atoms: _630  and  _631
REMARK  247  A    between atoms: _630  and  _633
REMARK  248  A    between atoms: _633  and  _634
REMARK  249  A    between atoms: _644  and  _646
REMARK  250  A    between atoms: _646  and  _647
REMARK  251  A    between atoms: _646  and  _649
REMARK  252  A    between atoms: _649  and  _650
REMARK  253  A    between atoms: _650  and  _651
REMARK  254  A    between atoms: _653  and  _655
REMARK  255  A    between atoms: _655  and  _656
REMARK  256  A    between atoms: _655  and  _658
REMARK  257  A    between atoms: _658  and  _659
REMARK  258  A    between atoms: _662  and  _664
REMARK  259  A    between atoms: _664  and  _665
REMARK  260  A    between atoms: _664  and  _667
REMARK  261  A    between atoms: _667  and  _668
REMARK  262  A    between atoms: _673  and  _675
REMARK  263  A    between atoms: _675  and  _676
REMARK  264  A    between atoms: _678  and  _680
REMARK  265  A    between atoms: _680  and  _681
REMARK  266  A    between atoms: _680  and  _683
REMARK  267  A    between atoms: _683  and  _684
REMARK  268  A    between atoms: _689  and  _690
REMARK  269  A    between atoms: _692  and  _694
REMARK  270  A    between atoms: _694  and  _695
REMARK  271  A    between atoms: _694  and  _697
REMARK  272  A    between atoms: _697  and  _698
REMARK  273  A    between atoms: _698  and  _699
REMARK  274  A    between atoms: _702  and  _704
REMARK  275  A    between atoms: _704  and  _705
REMARK  276  A    between atoms: _704  and  _707
REMARK  277  A    between atoms: _707  and  _708
REMARK                            x       y       z     vdW  Elec       q    Type
REMARK                         _______ _______ _______ _____ _____    ______ ____
ROOT
ATOM      1  O   HOH     1      10.561  55.439  68.503  0.00  0.00    +0.000 OA
ENDROOT
TORSDOF 0
REMARK  Name = ../refined-set-2016/1h22/1h22_pocket.pdb
REMARK  277 active torsions:
REMARK  status: ('A' for Active; 'I' for Inactive)
REMARK    1  A    between atoms: _1  and  _3
REMARK    2  A    between atoms: _3  and  _4
REMARK    3  A    between atoms: _3  and  _6
REMARK    4  A    between atoms: _6  and  _7
REMARK    5  A    between atoms: _7  and  _8
REMARK    6  A    between atoms: _13  and  _15
REMARK    7  A    between atoms: _15  and  _16
REMARK    8  A    between atoms: _15  and  _18
REMARK    9  A    between atoms: _18  and  _19
REMARK   10  A    between atoms: _24  and  _25
REMARK   11  A    between atoms: _27  and  _29
REMARK   12  A    between atoms: _29  and  _30
REMARK   13  A    between atoms: _29  and  _32
REMARK   14  A    between atoms: _35  and  _37
REMARK   15  A    between atoms: _37  and  _38
REMARK   16  A    between atoms: _37  and  _40
REMARK   17  A    between atoms: _40  and  _41
REMARK   18  A    between atoms: _44  and  _46
REMARK   19  A    between atoms: _46  and  _47
REMARK   20  A    between atoms: _46  and  _49
REMARK   21  A    between atoms: _49  and  _50
REMARK   22  A    between atoms: _50  and  _51
REMARK   23  A    between atoms: _54  and  _56
REMARK   24  A    between atoms: _56  and  _57
REMARK   25  A    between atoms: _56  and  _59
REMARK   26  A    between atoms: _59  and  _60
REMARK   27  A    between atoms: _60  and  _61
REMARK   28  A    between atoms: _66  and  _68
REMARK   29  A    between atoms: _68  and  _69
REMARK   30  A    between atoms: _68  and  _71
REMARK   31  A    between atoms: _71  and  _72
REMARK   32  A    between atoms: _78  and  _80
REMARK   33  A    between atoms: _80  and  _81
REMARK   34  A    between atoms: _83  and  _85
REMARK   35  A    between atoms: _85  and  _86
REMARK   36  A    between atoms: _85  and  _88
REMARK   37  A    between atoms: _88  and  _89
REMARK   38  A    between atoms: _91  and  _93
REMARK   39  A    between atoms: _93  and  _94
REMARK   40  A    between atoms: _93  and  _96
REMARK   41  A    between atoms: _96  and  _97
REMARK   42  A    between atoms: _97  and  _98
REMARK   43  A    between atoms: _100  and  _102
REMARK   44  A    between atoms: _102  and  _103
REMARK   45  A    between atoms: _102  and  _105
REMARK   46  A    between atoms: _105  and  _106
REMARK   47  A    between atoms: _116  and  _118
REMARK   48  A    between atoms: _118  and  _119
REMARK   49  A    between atoms: _118  and  _121
REMARK   50  A    between atoms: _121  and  _122
REMARK   51  A    between atoms: _128  and  _129
REMARK   52  A    between atoms: _134  and  _136
REMARK   53  A    between atoms: _136  and  _137
REMARK   54  A    between atoms: _136  and  _139
REMARK   55  A    between atoms: _139  and  _140
REMARK   56  A    between atoms: _150  and  _152
REMARK   57  A    between atoms: _152  and  _153
REMARK   58  A    between atoms: _152  and  _155
REMARK   59  A    between atoms: _155  and  _156
REMARK   60  A    between atoms: _159  and  _161
REMARK   61  A    between atoms: _161  and  _162
REMARK   62  A    between atoms: _161  and  _164
REMARK   63  A    between atoms: _164  and  _165
REMARK   64  A    between atoms: _170  and  _171
REMARK   65  A    between atoms: _173  and  _175
REMARK   66  A    between atoms: _175  and  _176
REMARK   67  A    between atoms: _178  and  _180
REMARK   68  A    between atoms: _180  and  _181
REMARK   69  A    between atoms: _183  and  _185
REMARK   70  A    between atoms: _185  and  _186
REMARK   71  A    between atoms: _188  and  _190
REMARK   72  A    between atoms: _190  and  _191
REMARK   73  A    between atoms: _190  and  _193
REMARK   74  A    between atoms: _193  and  _194
REMARK   75  A    between atoms: _200  and  _202
REMARK   76  A    between atoms: _202  and  _203
REMARK   77  A    between atoms: _202  and  _205
REMARK   78  A    between atoms: _205  and  _206
REMARK   79  A    between atoms: _211  and  _212
REMARK   80  A    between atoms: _214  and  _216
REMARK   81  A    between atoms: _216  and  _217
REMARK   82  A    between atoms: _216  and  _219
REMARK   83  A    between atoms: _219  and  _220
REMARK   84  A    between atoms: _222  and  _224
REMARK   85  A    between atoms: _224  and  _225
REMARK   86  A    between atoms: _227  and  _229
REMARK   87  A    between atoms: _229  and  _230
REMARK   88  A    between atoms: _229  and  _232
REMARK   89  A    between atoms: _232  and  _233
REMARK   90  A    between atoms: _235  and  _237
REMARK   91  A    between atoms: _237  and  _238
REMARK   92  A    between atoms: _237  and  _240
REMARK   93  A    between atoms: _240  and  _241
REMARK   94  A    between atoms: _243  and  _245
REMARK   95  A    between atoms: _245  and  _246
REMARK   96  A    between atoms: _245  and  _248
REMARK   97  A    between atoms: _248  and  _249
REMARK   98  A    between atoms: _252  and  _254
REMARK   99  A    between atoms: _254  and  _255
REMARK  100  A    between atoms: _254  and  _257
REMARK  101  A    between atoms: _257  and  _258
REMARK  102  A    between atoms: _261  and  _263
REMARK  103  A    between atoms: _263  and  _264
REMARK  104  A    between atoms: _263  and  _266
REMARK  105  A    between atoms: _269  and  _271
REMARK  106  A    between atoms: _271  and  _272
REMARK  107  A    between atoms: _271  and  _274
REMARK  108  A    between atoms: _274  and  _275
REMARK  109  A    between atoms: _280  and  _281
REMARK  110  A    between atoms: _283  and  _285
REMARK  111  A    between atoms: _285  and  _286
REMARK  112  A    between atoms: _285  and  _288
REMARK  113  A    between atoms: _288  and  _289
REMARK  114  A    between atoms: _294  and  _295
REMARK  115  A    between atoms: _297  and  _299
REMARK  116  A    between atoms: _299  and  _300
REMARK  117  A    between atoms: _299  and  _302
REMARK  118  A    between atoms: _305  and  _307
REMARK  119  A    between atoms: _307  and  _308
REMARK  120  A    between atoms: _307  and  _310
REMARK  121  A    between atoms: _310  and  _311
REMARK  122  A    between atoms: _311  and  _312
REMARK  123  A    between atoms: _315  and  _317
REMARK  124  A    between atoms: _317  and  _318
REMARK  125  A    between atoms: _317  and  _320
REMARK  126  A    between atoms: _320  and  _321
REMARK  127  A    between atoms: _323  and  _325
REMARK  128  A    between atoms: _325  and  _326
REMARK  129  A    between atoms: _329  and  _331
REMARK  130  A    between atoms: _331  and  _332
REMARK  131  A    between atoms: _334  and  _336
REMARK  132  A    between atoms: _336  and  _337
REMARK  133  A    between atoms: _336  and  _339
REMARK  134  A    between atoms: _339  and  _340
REMARK  135  A    between atoms: _342  and  _344
REMARK  136  A    between atoms: _344  and  _345
REMARK  137  A    between atoms: _344  and  _347
REMARK  138  A    between atoms: _347  and  _348
REMARK  139  A    between atoms: _358  and  _360
REMARK  140  A    between atoms: _360  and  _361
REMARK  141  A    between atoms: _360  and  _363
REMARK  142  A    between atoms: _363  and  _364
REMARK  143  A    between atoms: _364  and  _365
REMARK  144  A    between atoms: _368  and  _370
REMARK  145  A    between atoms: _370  and  _371
REMARK  146  A    between atoms: _370  and  _373
REMARK  147  A    between atoms: _373  and  _374
REMARK  148  A    between atoms: _384  and  _386
REMARK  149  A    between atoms: _386  and  _387
REMARK  150  A    between atoms: _386  and  _389
REMARK  151  A    between atoms: _389  and  _390
REMARK  152  A    between atoms: _395  and  _397
REMARK  153  A    between atoms: _397  and  _398
REMARK  154  A    between atoms: _397  and  _400
REMARK  155  A    between atoms: _400  and  _401
REMARK  156  A    between atoms: _404  and  _406
REMARK  157  A    between atoms: _406  and  _407
REMARK  158  A    between atoms: _406  and  _409
REMARK  159  A    between atoms: _409  and  _410
REMARK  160  A    between atoms: _416  and  _418
REMARK  161  A    between atoms: _418  and  _419
REMARK  162  A    between atoms: _418  and  _421
REMARK  163  A    between atoms: _421  and  _422
REMARK  164  A    between atoms: _425  and  _427
REMARK  165  A    between atoms: _427  and  _428
REMARK  166  A    between atoms: _427  and  _430
REMARK  167  A    between atoms: _430  and  _431
REMARK  168  A    between atoms: _433  and  _435
REMARK  169  A    between atoms: _435  and  _436
REMARK  170  A    between atoms: _435  and  _438
REMARK  171  A    between atoms: _438  and  _439
REMARK  172  A    between atoms: _442  and  _444
REMARK  173  A    between atoms: _444  and  _445
REMARK  174  A    between atoms: _444  and  _447
REMARK  175  A    between atoms: _447  and  _448
REMARK  176  A    between atoms: _454  and  _456
REMARK  177  A    between atoms: _456  and  _457
REMARK  178  A    between atoms: _456  and  _459
REMARK  179  A    between atoms: _459  and  _460
REMARK  180  A    between atoms: _460  and  _461
REMARK  181  A    between atoms: _461  and  _462
REMARK  182  A    between atoms: _471  and  _473
REMARK  183  A    between atoms: _473  and  _474
REMARK  184  A    between atoms: _473  and  _476
REMARK  185  A    between atoms: _476  and  _477
REMARK  186  A    between atoms: _483  and  _485
REMARK  187  A    between atoms: _485  and  _486
REMARK  188  A    between atoms: _485  and  _488
REMARK  189  A    between atoms: _488  and  _489
REMARK  190  A    between atoms: _491  and  _493
REMARK  191  A    between atoms: _493  and  _494
REMARK  192  A    between atoms: _493  and  _496
REMARK  193  A    between atoms: _496  and  _497
REMARK  194  A    between atoms: _502  and  _504
REMARK  195  A    between atoms: _504  and  _505
REMARK  196  A    between atoms: _504  and  _507
REMARK  197  A    between atoms: _507  and  _508
REMARK  198  A    between atoms: _508  and  _509
REMARK  199  A    between atoms: _512  and  _514
REMARK  200  A    between atoms: _514  and  _515
REMARK  201  A    between atoms: _517  and  _519
REMARK  202  A    between atoms: _519  and  _520
REMARK  203  A    between atoms: _519  and  _522
REMARK  204  A    between atoms: _522  and  _523
REMARK  205  A    between atoms: _525  and  _527
REMARK  206  A    between atoms: _527  and  _528
REMARK  207  A    between atoms: _527  and  _530
REMARK  208  A    between atoms: _530  and  _531
REMARK  209  A    between atoms: _537  and  _539
REMARK  210  A    between atoms: _539  and  _540
REMARK  211  A    between atoms: _539  and  _542
REMARK  212  A    between atoms: _542  and  _543
REMARK  213  A    between atoms: _549  and  _551
REMARK  214  A    between atoms: _551  and  _552
REMARK  215  A    between atoms: _551  and  _554
REMARK  216  A    between atoms: _554  and  _555
REMARK  217  A    between atoms: _558  and  _560
REMARK  218  A    between atoms: _560  and  _561
REMARK  219  A    between atoms: _560  and  _563
REMARK  220  A    between atoms: _563  and  _564
REMARK  221  A    between atoms: _567  and  _569
REMARK  222  A    between atoms: _569  and  _570
REMARK  223  A    between atoms: _569  and  _572
REMARK  224  A    between atoms: _572  and  _573
REMARK  225  A    between atoms: _578  and  _579
REMARK  226  A    between atoms: _581  and  _583
REMARK  227  A    between atoms: _583  and  _584
REMARK  228  A    between atoms: _586  and  _588
REMARK  229  A    between atoms: _588  and  _589
REMARK  230  A    between atoms: _592  and  _594
REMARK  231  A    between atoms: _594  and  _595
REMARK  232  A    between atoms: _594  and  _597
REMARK  233  A    between atoms: _597  and  _598
REMARK  234  A    between atoms: _601  and  _603
REMARK  235  A    between atoms: _603  and  _604
REMARK  236  A    between atoms: _603  and  _606
REMARK  237  A    between atoms: _606  and  _607
REMARK  238  A    between atoms: _609  and  _611
REMARK  239  A    between atoms: _611  and  _612
REMARK  240  A    between atoms: _611  and  _614
REMARK  241  A    between atoms: _617  and  _619
REMARK  242  A    between atoms: _619  and  _620
REMARK  243  A    between atoms: _619  and  _622
REMARK  244  A    between atoms: _622  and  _623
REMARK  245  A    between atoms: _628  and  _630
REMARK  246  A    between atoms: _630  and  _631
REMARK  247  A    between atoms: _630  and  _633
REMARK  248  A    between atoms: _633  and  _634
REMARK  249  A    between atoms: _644  and  _646
REMARK  250  A    between atoms: _646  and  _647
REMARK  251  A    between atoms: _646  and  _649
REMARK  252  A    between atoms: _649  and  _650
REMARK  253  A    between atoms: _650  and  _651
REMARK  254  A    between atoms: _653  and  _655
REMARK  255  A    between atoms: _655  and  _656
REMARK  256  A    between atoms: _655  and  _658
REMARK  257  A    between atoms: _658  and  _659
REMARK  258  A    between atoms: _662  and  _664
REMARK  259  A    between atoms: _664  and  _665
REMARK  260  A    between atoms: _664  and  _667
REMARK  261  A    between atoms: _667  and  _668
REMARK  262  A    between atoms: _673  and  _675
REMARK  263  A    between atoms: _675  and  _676
REMARK  264  A    between atoms: _678  and  _680
REMARK  265  A    between atoms: _680  and  _681
REMARK  266  A    between atoms: _680  and  _683
REMARK  267  A    between atoms: _683  and  _684
REMARK  268  A    between atoms: _689  and  _690
REMARK  269  A    between atoms: _692  and  _694
REMARK  270  A    between atoms: _694  and  _695
REMARK  271  A    between atoms: _694  and  _697
REMARK  272  A    between atoms: _697  and  _698
REMARK  273  A    between atoms: _698  and  _699
REMARK  274  A    between atoms: _702  and  _704
REMARK  275  A    between atoms: _704  and  _705
REMARK  276  A    between atoms: _704  and  _707
REMARK  277  A    between atoms: _707  and  _708
REMARK                            x       y       z     vdW  Elec       q    Type
REMARK                         _______ _______ _______ _____ _____    ______ ____
ROOT
ATOM      1  O   HOH     1       7.637  75.458  61.065  0.00  0.00    +0.000 OA
ENDROOT
TORSDOF 0
REMARK  Name = ../refined-set-2016/1h22/1h22_pocket.pdb
REMARK  277 active torsions:
REMARK  status: ('A' for Active; 'I' for Inactive)
REMARK    1  A    between atoms: _1  and  _3
REMARK    2  A    between atoms: _3  and  _4
REMARK    3  A    between atoms: _3  and  _6
REMARK    4  A    between atoms: _6  and  _7
REMARK    5  A    between atoms: _7  and  _8
REMARK    6  A    between atoms: _13  and  _15
REMARK    7  A    between atoms: _15  and  _16
REMARK    8  A    between atoms: _15  and  _18
REMARK    9  A    between atoms: _18  and  _19
REMARK   10  A    between atoms: _24  and  _25
REMARK   11  A    between atoms: _27  and  _29
REMARK   12  A    between atoms: _29  and  _30
REMARK   13  A    between atoms: _29  and  _32
REMARK   14  A    between atoms: _35  and  _37
REMARK   15  A    between atoms: _37  and  _38
REMARK   16  A    between atoms: _37  and  _40
REMARK   17  A    between atoms: _40  and  _41
REMARK   18  A    between atoms: _44  and  _46
REMARK   19  A    between atoms: _46  and  _47
REMARK   20  A    between atoms: _46  and  _49
REMARK   21  A    between atoms: _49  and  _50
REMARK   22  A    between atoms: _50  and  _51
REMARK   23  A    between atoms: _54  and  _56
REMARK   24  A    between atoms: _56  and  _57
REMARK   25  A    between atoms: _56  and  _59
REMARK   26  A    between atoms: _59  and  _60
REMARK   27  A    between atoms: _60  and  _61
REMARK   28  A    between atoms: _66  and  _68
REMARK   29  A    between atoms: _68  and  _69
REMARK   30  A    between atoms: _68  and  _71
REMARK   31  A    between atoms: _71  and  _72
REMARK   32  A    between atoms: _78  and  _80
REMARK   33  A    between atoms: _80  and  _81
REMARK   34  A    between atoms: _83  and  _85
REMARK   35  A    between atoms: _85  and  _86
REMARK   36  A    between atoms: _85  and  _88
REMARK   37  A    between atoms: _88  and  _89
REMARK   38  A    between atoms: _91  and  _93
REMARK   39  A    between atoms: _93  and  _94
REMARK   40  A    between atoms: _93  and  _96
REMARK   41  A    between atoms: _96  and  _97
REMARK   42  A    between atoms: _97  and  _98
REMARK   43  A    between atoms: _100  and  _102
REMARK   44  A    between atoms: _102  and  _103
REMARK   45  A    between atoms: _102  and  _105
REMARK   46  A    between atoms: _105  and  _106
REMARK   47  A    between atoms: _116  and  _118
REMARK   48  A    between atoms: _118  and  _119
REMARK   49  A    between atoms: _118  and  _121
REMARK   50  A    between atoms: _121  and  _122
REMARK   51  A    between atoms: _128  and  _129
REMARK   52  A    between atoms: _134  and  _136
REMARK   53  A    between atoms: _136  and  _137
REMARK   54  A    between atoms: _136  and  _139
REMARK   55  A    between atoms: _139  and  _140
REMARK   56  A    between atoms: _150  and  _152
REMARK   57  A    between atoms: _152  and  _153
REMARK   58  A    between atoms: _152  and  _155
REMARK   59  A    between atoms: _155  and  _156
REMARK   60  A    between atoms: _159  and  _161
REMARK   61  A    between atoms: _161  and  _162
REMARK   62  A    between atoms: _161  and  _164
REMARK   63  A    between atoms: _164  and  _165
REMARK   64  A    between atoms: _170  and  _171
REMARK   65  A    between atoms: _173  and  _175
REMARK   66  A    between atoms: _175  and  _176
REMARK   67  A    between atoms: _178  and  _180
REMARK   68  A    between atoms: _180  and  _181
REMARK   69  A    between atoms: _183  and  _185
REMARK   70  A    between atoms: _185  and  _186
REMARK   71  A    between atoms: _188  and  _190
REMARK   72  A    between atoms: _190  and  _191
REMARK   73  A    between atoms: _190  and  _193
REMARK   74  A    between atoms: _193  and  _194
REMARK   75  A    between atoms: _200  and  _202
REMARK   76  A    between atoms: _202  and  _203
REMARK   77  A    between atoms: _202  and  _205
REMARK   78  A    between atoms: _205  and  _206
REMARK   79  A    between atoms: _211  and  _212
REMARK   80  A    between atoms: _214  and  _216
REMARK   81  A    between atoms: _216  and  _217
REMARK   82  A    between atoms: _216  and  _219
REMARK   83  A    between atoms: _219  and  _220
REMARK   84  A    between atoms: _222  and  _224
REMARK   85  A    between atoms: _224  and  _225
REMARK   86  A    between atoms: _227  and  _229
REMARK   87  A    between atoms: _229  and  _230
REMARK   88  A    between atoms: _229  and  _232
REMARK   89  A    between atoms: _232  and  _233
REMARK   90  A    between atoms: _235  and  _237
REMARK   91  A    between atoms: _237  and  _238
REMARK   92  A    between atoms: _237  and  _240
REMARK   93  A    between atoms: _240  and  _241
REMARK   94  A    between atoms: _243  and  _245
REMARK   95  A    between atoms: _245  and  _246
REMARK   96  A    between atoms: _245  and  _248
REMARK   97  A    between atoms: _248  and  _249
REMARK   98  A    between atoms: _252  and  _254
REMARK   99  A    between atoms: _254  and  _255
REMARK  100  A    between atoms: _254  and  _257
REMARK  101  A    between atoms: _257  and  _258
REMARK  102  A    between atoms: _261  and  _263
REMARK  103  A    between atoms: _263  and  _264
REMARK  104  A    between atoms: _263  and  _266
REMARK  105  A    between atoms: _269  and  _271
REMARK  106  A    between atoms: _271  and  _272
REMARK  107  A    between atoms: _271  and  _274
REMARK  108  A    between atoms: _274  and  _275
REMARK  109  A    between atoms: _280  and  _281
REMARK  110  A    between atoms: _283  and  _285
REMARK  111  A    between atoms: _285  and  _286
REMARK  112  A    between atoms: _285  and  _288
REMARK  113  A    between atoms: _288  and  _289
REMARK  114  A    between atoms: _294  and  _295
REMARK  115  A    between atoms: _297  and  _299
REMARK  116  A    between atoms: _299  and  _300
REMARK  117  A    between atoms: _299  and  _302
REMARK  118  A    between atoms: _305  and  _307
REMARK  119  A    between atoms: _307  and  _308
REMARK  120  A    between atoms: _307  and  _310
REMARK  121  A    between atoms: _310  and  _311
REMARK  122  A    between atoms: _311  and  _312
REMARK  123  A    between atoms: _315  and  _317
REMARK  124  A    between atoms: _317  and  _318
REMARK  125  A    between atoms: _317  and  _320
REMARK  126  A    between atoms: _320  and  _321
REMARK  127  A    between atoms: _323  and  _325
REMARK  128  A    between atoms: _325  and  _326
REMARK  129  A    between atoms: _329  and  _331
REMARK  130  A    between atoms: _331  and  _332
REMARK  131  A    between atoms: _334  and  _336
REMARK  132  A    between atoms: _336  and  _337
REMARK  133  A    between atoms: _336  and  _339
REMARK  134  A    between atoms: _339  and  _340
REMARK  135  A    between atoms: _342  and  _344
REMARK  136  A    between atoms: _344  and  _345
REMARK  137  A    between atoms: _344  and  _347
REMARK  138  A    between atoms: _347  and  _348
REMARK  139  A    between atoms: _358  and  _360
REMARK  140  A    between atoms: _360  and  _361
REMARK  141  A    between atoms: _360  and  _363
REMARK  142  A    between atoms: _363  and  _364
REMARK  143  A    between atoms: _364  and  _365
REMARK  144  A    between atoms: _368  and  _370
REMARK  145  A    between atoms: _370  and  _371
REMARK  146  A    between atoms: _370  and  _373
REMARK  147  A    between atoms: _373  and  _374
REMARK  148  A    between atoms: _384  and  _386
REMARK  149  A    between atoms: _386  and  _387
REMARK  150  A    between atoms: _386  and  _389
REMARK  151  A    between atoms: _389  and  _390
REMARK  152  A    between atoms: _395  and  _397
REMARK  153  A    between atoms: _397  and  _398
REMARK  154  A    between atoms: _397  and  _400
REMARK  155  A    between atoms: _400  and  _401
REMARK  156  A    between atoms: _404  and  _406
REMARK  157  A    between atoms: _406  and  _407
REMARK  158  A    between atoms: _406  and  _409
REMARK  159  A    between atoms: _409  and  _410
REMARK  160  A    between atoms: _416  and  _418
REMARK  161  A    between atoms: _418  and  _419
REMARK  162  A    between atoms: _418  and  _421
REMARK  163  A    between atoms: _421  and  _422
REMARK  164  A    between atoms: _425  and  _427
REMARK  165  A    between atoms: _427  and  _428
REMARK  166  A    between atoms: _427  and  _430
REMARK  167  A    between atoms: _430  and  _431
REMARK  168  A    between atoms: _433  and  _435
REMARK  169  A    between atoms: _435  and  _436
REMARK  170  A    between atoms: _435  and  _438
REMARK  171  A    between atoms: _438  and  _439
REMARK  172  A    between atoms: _442  and  _444
REMARK  173  A    between atoms: _444  and  _445
REMARK  174  A    between atoms: _444  and  _447
REMARK  175  A    between atoms: _447  and  _448
REMARK  176  A    between atoms: _454  and  _456
REMARK  177  A    between atoms: _456  and  _457
REMARK  178  A    between atoms: _456  and  _459
REMARK  179  A    between atoms: _459  and  _460
REMARK  180  A    between atoms: _460  and  _461
REMARK  181  A    between atoms: _461  and  _462
REMARK  182  A    between atoms: _471  and  _473
REMARK  183  A    between atoms: _473  and  _474
REMARK  184  A    between atoms: _473  and  _476
REMARK  185  A    between atoms: _476  and  _477
REMARK  186  A    between atoms: _483  and  _485
REMARK  187  A    between atoms: _485  and  _486
REMARK  188  A    between atoms: _485  and  _488
REMARK  189  A    between atoms: _488  and  _489
REMARK  190  A    between atoms: _491  and  _493
REMARK  191  A    between atoms: _493  and  _494
REMARK  192  A    between atoms: _493  and  _496
REMARK  193  A    between atoms: _496  and  _497
REMARK  194  A    between atoms: _502  and  _504
REMARK  195  A    between atoms: _504  and  _505
REMARK  196  A    between atoms: _504  and  _507
REMARK  197  A    between atoms: _507  and  _508
REMARK  198  A    between atoms: _508  and  _509
REMARK  199  A    between atoms: _512  and  _514
REMARK  200  A    between atoms: _514  and  _515
REMARK  201  A    between atoms: _517  and  _519
REMARK  202  A    between atoms: _519  and  _520
REMARK  203  A    between atoms: _519  and  _522
REMARK  204  A    between atoms: _522  and  _523
REMARK  205  A    between atoms: _525  and  _527
REMARK  206  A    between atoms: _527  and  _528
REMARK  207  A    between atoms: _527  and  _530
REMARK  208  A    between atoms: _530  and  _531
REMARK  209  A    between atoms: _537  and  _539
REMARK  210  A    between atoms: _539  and  _540
REMARK  211  A    between atoms: _539  and  _542
REMARK  212  A    between atoms: _542  and  _543
REMARK  213  A    between atoms: _549  and  _551
REMARK  214  A    between atoms: _551  and  _552
REMARK  215  A    between atoms: _551  and  _554
REMARK  216  A    between atoms: _554  and  _555
REMARK  217  A    between atoms: _558  and  _560
REMARK  218  A    between atoms: _560  and  _561
REMARK  219  A    between atoms: _560  and  _563
REMARK  220  A    between atoms: _563  and  _564
REMARK  221  A    between atoms: _567  and  _569
REMARK  222  A    between atoms: _569  and  _570
REMARK  223  A    between atoms: _569  and  _572
REMARK  224  A    between atoms: _572  and  _573
REMARK  225  A    between atoms: _578  and  _579
REMARK  226  A    between atoms: _581  and  _583
REMARK  227  A    between atoms: _583  and  _584
REMARK  228  A    between atoms: _586  and  _588
REMARK  229  A    between atoms: _588  and  _589
REMARK  230  A    between atoms: _592  and  _594
REMARK  231  A    between atoms: _594  and  _595
REMARK  232  A    between atoms: _594  and  _597
REMARK  233  A    between atoms: _597  and  _598
REMARK  234  A    between atoms: _601  and  _603
REMARK  235  A    between atoms: _603  and  _604
REMARK  236  A    between atoms: _603  and  _606
REMARK  237  A    between atoms: _606  and  _607
REMARK  238  A    between atoms: _609  and  _611
REMARK  239  A    between atoms: _611  and  _612
REMARK  240  A    between atoms: _611  and  _614
REMARK  241  A    between atoms: _617  and  _619
REMARK  242  A    between atoms: _619  and  _620
REMARK  243  A    between atoms: _619  and  _622
REMARK  244  A    between atoms: _622  and  _623
REMARK  245  A    between atoms: _628  and  _630
REMARK  246  A    between atoms: _630  and  _631
REMARK  247  A    between atoms: _630  and  _633
REMARK  248  A    between atoms: _633  and  _634
REMARK  249  A    between atoms: _644  and  _646
REMARK  250  A    between atoms: _646  and  _647
REMARK  251  A    between atoms: _646  and  _649
REMARK  252  A    between atoms: _649  and  _650
REMARK  253  A    between atoms: _650  and  _651
REMARK  254  A    between atoms: _653  and  _655
REMARK  255  A    between atoms: _655  and  _656
REMARK  256  A    between atoms: _655  and  _658
REMARK  257  A    between atoms: _658  and  _659
REMARK  258  A    between atoms: _662  and  _664
REMARK  259  A    between atoms: _664  and  _665
REMARK  260  A    between atoms: _664  and  _667
REMARK  261  A    between atoms: _667  and  _668
REMARK  262  A    between atoms: _673  and  _675
REMARK  263  A    between atoms: _675  and  _676
REMARK  264  A    between atoms: _678  and  _680
REMARK  265  A    between atoms: _680  and  _681
REMARK  266  A    between atoms: _680  and  _683
REMARK  267  A    between atoms: _683  and  _684
REMARK  268  A    between atoms: _689  and  _690
REMARK  269  A    between atoms: _692  and  _694
REMARK  270  A    between atoms: _694  and  _695
REMARK  271  A    between atoms: _694  and  _697
REMARK  272  A    between atoms: _697  and  _698
REMARK  273  A    between atoms: _698  and  _699
REMARK  274  A    between atoms: _702  and  _704
REMARK  275  A    between atoms: _704  and  _705
REMARK  276  A    between atoms: _704  and  _707
REMARK  277  A    between atoms: _707  and  _708
REMARK                            x       y       z     vdW  Elec       q    Type
REMARK                         _______ _______ _______ _____ _____    ______ ____
ROOT
ATOM      1  O   HOH     1       3.900  56.247  70.153  0.00  0.00    +0.000 OA
ENDROOT
TORSDOF 0
REMARK  Name = ../refined-set-2016/1h22/1h22_pocket.pdb
REMARK  277 active torsions:
REMARK  status: ('A' for Active; 'I' for Inactive)
REMARK    1  A    between atoms: _1  and  _3
REMARK    2  A    between atoms: _3  and  _4
REMARK    3  A    between atoms: _3  and  _6
REMARK    4  A    between atoms: _6  and  _7
REMARK    5  A    between atoms: _7  and  _8
REMARK    6  A    between atoms: _13  and  _15
REMARK    7  A    between atoms: _15  and  _16
REMARK    8  A    between atoms: _15  and  _18
REMARK    9  A    between atoms: _18  and  _19
REMARK   10  A    between atoms: _24  and  _25
REMARK   11  A    between atoms: _27  and  _29
REMARK   12  A    between atoms: _29  and  _30
REMARK   13  A    between atoms: _29  and  _32
REMARK   14  A    between atoms: _35  and  _37
REMARK   15  A    between atoms: _37  and  _38
REMARK   16  A    between atoms: _37  and  _40
REMARK   17  A    between atoms: _40  and  _41
REMARK   18  A    between atoms: _44  and  _46
REMARK   19  A    between atoms: _46  and  _47
REMARK   20  A    between atoms: _46  and  _49
REMARK   21  A    between atoms: _49  and  _50
REMARK   22  A    between atoms: _50  and  _51
REMARK   23  A    between atoms: _54  and  _56
REMARK   24  A    between atoms: _56  and  _57
REMARK   25  A    between atoms: _56  and  _59
REMARK   26  A    between atoms: _59  and  _60
REMARK   27  A    between atoms: _60  and  _61
REMARK   28  A    between atoms: _66  and  _68
REMARK   29  A    between atoms: _68  and  _69
REMARK   30  A    between atoms: _68  and  _71
REMARK   31  A    between atoms: _71  and  _72
REMARK   32  A    between atoms: _78  and  _80
REMARK   33  A    between atoms: _80  and  _81
REMARK   34  A    between atoms: _83  and  _85
REMARK   35  A    between atoms: _85  and  _86
REMARK   36  A    between atoms: _85  and  _88
REMARK   37  A    between atoms: _88  and  _89
REMARK   38  A    between atoms: _91  and  _93
REMARK   39  A    between atoms: _93  and  _94
REMARK   40  A    between atoms: _93  and  _96
REMARK   41  A    between atoms: _96  and  _97
REMARK   42  A    between atoms: _97  and  _98
REMARK   43  A    between atoms: _100  and  _102
REMARK   44  A    between atoms: _102  and  _103
REMARK   45  A    between atoms: _102  and  _105
REMARK   46  A    between atoms: _105  and  _106
REMARK   47  A    between atoms: _116  and  _118
REMARK   48  A    between atoms: _118  and  _119
REMARK   49  A    between atoms: _118  and  _121
REMARK   50  A    between atoms: _121  and  _122
REMARK   51  A    between atoms: _128  and  _129
REMARK   52  A    between atoms: _134  and  _136
REMARK   53  A    between atoms: _136  and  _137
REMARK   54  A    between atoms: _136  and  _139
REMARK   55  A    between atoms: _139  and  _140
REMARK   56  A    between atoms: _150  and  _152
REMARK   57  A    between atoms: _152  and  _153
REMARK   58  A    between atoms: _152  and  _155
REMARK   59  A    between atoms: _155  and  _156
REMARK   60  A    between atoms: _159  and  _161
REMARK   61  A    between atoms: _161  and  _162
REMARK   62  A    between atoms: _161  and  _164
REMARK   63  A    between atoms: _164  and  _165
REMARK   64  A    between atoms: _170  and  _171
REMARK   65  A    between atoms: _173  and  _175
REMARK   66  A    between atoms: _175  and  _176
REMARK   67  A    between atoms: _178  and  _180
REMARK   68  A    between atoms: _180  and  _181
REMARK   69  A    between atoms: _183  and  _185
REMARK   70  A    between atoms: _185  and  _186
REMARK   71  A    between atoms: _188  and  _190
REMARK   72  A    between atoms: _190  and  _191
REMARK   73  A    between atoms: _190  and  _193
REMARK   74  A    between atoms: _193  and  _194
REMARK   75  A    between atoms: _200  and  _202
REMARK   76  A    between atoms: _202  and  _203
REMARK   77  A    between atoms: _202  and  _205
REMARK   78  A    between atoms: _205  and  _206
REMARK   79  A    between atoms: _211  and  _212
REMARK   80  A    between atoms: _214  and  _216
REMARK   81  A    between atoms: _216  and  _217
REMARK   82  A    between atoms: _216  and  _219
REMARK   83  A    between atoms: _219  and  _220
REMARK   84  A    between atoms: _222  and  _224
REMARK   85  A    between atoms: _224  and  _225
REMARK   86  A    between atoms: _227  and  _229
REMARK   87  A    between atoms: _229  and  _230
REMARK   88  A    between atoms: _229  and  _232
REMARK   89  A    between atoms: _232  and  _233
REMARK   90  A    between atoms: _235  and  _237
REMARK   91  A    between atoms: _237  and  _238
REMARK   92  A    between atoms: _237  and  _240
REMARK   93  A    between atoms: _240  and  _241
REMARK   94  A    between atoms: _243  and  _245
REMARK   95  A    between atoms: _245  and  _246
REMARK   96  A    between atoms: _245  and  _248
REMARK   97  A    between atoms: _248  and  _249
REMARK   98  A    between atoms: _252  and  _254
REMARK   99  A    between atoms: _254  and  _255
REMARK  100  A    between atoms: _254  and  _257
REMARK  101  A    between atoms: _257  and  _258
REMARK  102  A    between atoms: _261  and  _263
REMARK  103  A    between atoms: _263  and  _264
REMARK  104  A    between atoms: _263  and  _266
REMARK  105  A    between atoms: _269  and  _271
REMARK  106  A    between atoms: _271  and  _272
REMARK  107  A    between atoms: _271  and  _274
REMARK  108  A    between atoms: _274  and  _275
REMARK  109  A    between atoms: _280  and  _281
REMARK  110  A    between atoms: _283  and  _285
REMARK  111  A    between atoms: _285  and  _286
REMARK  112  A    between atoms: _285  and  _288
REMARK  113  A    between atoms: _288  and  _289
REMARK  114  A    between atoms: _294  and  _295
REMARK  115  A    between atoms: _297  and  _299
REMARK  116  A    between atoms: _299  and  _300
REMARK  117  A    between atoms: _299  and  _302
REMARK  118  A    between atoms: _305  and  _307
REMARK  119  A    between atoms: _307  and  _308
REMARK  120  A    between atoms: _307  and  _310
REMARK  121  A    between atoms: _310  and  _311
REMARK  122  A    between atoms: _311  and  _312
REMARK  123  A    between atoms: _315  and  _317
REMARK  124  A    between atoms: _317  and  _318
REMARK  125  A    between atoms: _317  and  _320
REMARK  126  A    between atoms: _320  and  _321
REMARK  127  A    between atoms: _323  and  _325
REMARK  128  A    between atoms: _325  and  _326
REMARK  129  A    between atoms: _329  and  _331
REMARK  130  A    between atoms: _331  and  _332
REMARK  131  A    between atoms: _334  and  _336
REMARK  132  A    between atoms: _336  and  _337
REMARK  133  A    between atoms: _336  and  _339
REMARK  134  A    between atoms: _339  and  _340
REMARK  135  A    between atoms: _342  and  _344
REMARK  136  A    between atoms: _344  and  _345
REMARK  137  A    between atoms: _344  and  _347
REMARK  138  A    between atoms: _347  and  _348
REMARK  139  A    between atoms: _358  and  _360
REMARK  140  A    between atoms: _360  and  _361
REMARK  141  A    between atoms: _360  and  _363
REMARK  142  A    between atoms: _363  and  _364
REMARK  143  A    between atoms: _364  and  _365
REMARK  144  A    between atoms: _368  and  _370
REMARK  145  A    between atoms: _370  and  _371
REMARK  146  A    between atoms: _370  and  _373
REMARK  147  A    between atoms: _373  and  _374
REMARK  148  A    between atoms: _384  and  _386
REMARK  149  A    between atoms: _386  and  _387
REMARK  150  A    between atoms: _386  and  _389
REMARK  151  A    between atoms: _389  and  _390
REMARK  152  A    between atoms: _395  and  _397
REMARK  153  A    between atoms: _397  and  _398
REMARK  154  A    between atoms: _397  and  _400
REMARK  155  A    between atoms: _400  and  _401
REMARK  156  A    between atoms: _404  and  _406
REMARK  157  A    between atoms: _406  and  _407
REMARK  158  A    between atoms: _406  and  _409
REMARK  159  A    between atoms: _409  and  _410
REMARK  160  A    between atoms: _416  and  _418
REMARK  161  A    between atoms: _418  and  _419
REMARK  162  A    between atoms: _418  and  _421
REMARK  163  A    between atoms: _421  and  _422
REMARK  164  A    between atoms: _425  and  _427
REMARK  165  A    between atoms: _427  and  _428
REMARK  166  A    between atoms: _427  and  _430
REMARK  167  A    between atoms: _430  and  _431
REMARK  168  A    between atoms: _433  and  _435
REMARK  169  A    between atoms: _435  and  _436
REMARK  170  A    between atoms: _435  and  _438
REMARK  171  A    between atoms: _438  and  _439
REMARK  172  A    between atoms: _442  and  _444
REMARK  173  A    between atoms: _444  and  _445
REMARK  174  A    between atoms: _444  and  _447
REMARK  175  A    between atoms: _447  and  _448
REMARK  176  A    between atoms: _454  and  _456
REMARK  177  A    between atoms: _456  and  _457
REMARK  178  A    between atoms: _456  and  _459
REMARK  179  A    between atoms: _459  and  _460
REMARK  180  A    between atoms: _460  and  _461
REMARK  181  A    between atoms: _461  and  _462
REMARK  182  A    between atoms: _471  and  _473
REMARK  183  A    between atoms: _473  and  _474
REMARK  184  A    between atoms: _473  and  _476
REMARK  185  A    between atoms: _476  and  _477
REMARK  186  A    between atoms: _483  and  _485
REMARK  187  A    between atoms: _485  and  _486
REMARK  188  A    between atoms: _485  and  _488
REMARK  189  A    between atoms: _488  and  _489
REMARK  190  A    between atoms: _491  and  _493
REMARK  191  A    between atoms: _493  and  _494
REMARK  192  A    between atoms: _493  and  _496
REMARK  193  A    between atoms: _496  and  _497
REMARK  194  A    between atoms: _502  and  _504
REMARK  195  A    between atoms: _504  and  _505
REMARK  196  A    between atoms: _504  and  _507
REMARK  197  A    between atoms: _507  and  _508
REMARK  198  A    between atoms: _508  and  _509
REMARK  199  A    between atoms: _512  and  _514
REMARK  200  A    between atoms: _514  and  _515
REMARK  201  A    between atoms: _517  and  _519
REMARK  202  A    between atoms: _519  and  _520
REMARK  203  A    between atoms: _519  and  _522
REMARK  204  A    between atoms: _522  and  _523
REMARK  205  A    between atoms: _525  and  _527
REMARK  206  A    between atoms: _527  and  _528
REMARK  207  A    between atoms: _527  and  _530
REMARK  208  A    between atoms: _530  and  _531
REMARK  209  A    between atoms: _537  and  _539
REMARK  210  A    between atoms: _539  and  _540
REMARK  211  A    between atoms: _539  and  _542
REMARK  212  A    between atoms: _542  and  _543
REMARK  213  A    between atoms: _549  and  _551
REMARK  214  A    between atoms: _551  and  _552
REMARK  215  A    between atoms: _551  and  _554
REMARK  216  A    between atoms: _554  and  _555
REMARK  217  A    between atoms: _558  and  _560
REMARK  218  A    between atoms: _560  and  _561
REMARK  219  A    between atoms: _560  and  _563
REMARK  220  A    between atoms: _563  and  _564
REMARK  221  A    between atoms: _567  and  _569
REMARK  222  A    between atoms: _569  and  _570
REMARK  223  A    between atoms: _569  and  _572
REMARK  224  A    between atoms: _572  and  _573
REMARK  225  A    between atoms: _578  and  _579
REMARK  226  A    between atoms: _581  and  _583
REMARK  227  A    between atoms: _583  and  _584
REMARK  228  A    between atoms: _586  and  _588
REMARK  229  A    between atoms: _588  and  _589
REMARK  230  A    between atoms: _592  and  _594
REMARK  231  A    between atoms: _594  and  _595
REMARK  232  A    between atoms: _594  and  _597
REMARK  233  A    between atoms: _597  and  _598
REMARK  234  A    between atoms: _601  and  _603
REMARK  235  A    between atoms: _603  and  _604
REMARK  236  A    between atoms: _603  and  _606
REMARK  237  A    between atoms: _606  and  _607
REMARK  238  A    between atoms: _609  and  _611
REMARK  239  A    between atoms: _611  and  _612
REMARK  240  A    between atoms: _611  and  _614
REMARK  241  A    between atoms: _617  and  _619
REMARK  242  A    between atoms: _619  and  _620
REMARK  243  A    between atoms: _619  and  _622
REMARK  244  A    between atoms: _622  and  _623
REMARK  245  A    between atoms: _628  and  _630
REMARK  246  A    between atoms: _630  and  _631
REMARK  247  A    between atoms: _630  and  _633
REMARK  248  A    between atoms: _633  and  _634
REMARK  249  A    between atoms: _644  and  _646
REMARK  250  A    between atoms: _646  and  _647
REMARK  251  A    between atoms: _646  and  _649
REMARK  252  A    between atoms: _649  and  _650
REMARK  253  A    between atoms: _650  and  _651
REMARK  254  A    between atoms: _653  and  _655
REMARK  255  A    between atoms: _655  and  _656
REMARK  256  A    between atoms: _655  and  _658
REMARK  257  A    between atoms: _658  and  _659
REMARK  258  A    between atoms: _662  and  _664
REMARK  259  A    between atoms: _664  and  _665
REMARK  260  A    between atoms: _664  and  _667
REMARK  261  A    between atoms: _667  and  _668
REMARK  262  A    between atoms: _673  and  _675
REMARK  263  A    between atoms: _675  and  _676
REMARK  264  A    between atoms: _678  and  _680
REMARK  265  A    between atoms: _680  and  _681
REMARK  266  A    between atoms: _680  and  _683
REMARK  267  A    between atoms: _683  and  _684
REMARK  268  A    between atoms: _689  and  _690
REMARK  269  A    between atoms: _692  and  _694
REMARK  270  A    between atoms: _694  and  _695
REMARK  271  A    between atoms: _694  and  _697
REMARK  272  A    between atoms: _697  and  _698
REMARK  273  A    between atoms: _698  and  _699
REMARK  274  A    between atoms: _702  and  _704
REMARK  275  A    between atoms: _704  and  _705
REMARK  276  A    between atoms: _704  and  _707
REMARK  277  A    between atoms: _707  and  _708
REMARK                            x       y       z     vdW  Elec       q    Type
REMARK                         _______ _______ _______ _____ _____    ______ ____
ROOT
ATOM      1  O   HOH     1       0.549  68.120  67.011  0.00  0.00    +0.000 OA
ENDROOT
TORSDOF 0
REMARK  Name = ../refined-set-2016/1h22/1h22_pocket.pdb
REMARK  277 active torsions:
REMARK  status: ('A' for Active; 'I' for Inactive)
REMARK    1  A    between atoms: _1  and  _3
REMARK    2  A    between atoms: _3  and  _4
REMARK    3  A    between atoms: _3  and  _6
REMARK    4  A    between atoms: _6  and  _7
REMARK    5  A    between atoms: _7  and  _8
REMARK    6  A    between atoms: _13  and  _15
REMARK    7  A    between atoms: _15  and  _16
REMARK    8  A    between atoms: _15  and  _18
REMARK    9  A    between atoms: _18  and  _19
REMARK   10  A    between atoms: _24  and  _25
REMARK   11  A    between atoms: _27  and  _29
REMARK   12  A    between atoms: _29  and  _30
REMARK   13  A    between atoms: _29  and  _32
REMARK   14  A    between atoms: _35  and  _37
REMARK   15  A    between atoms: _37  and  _38
REMARK   16  A    between atoms: _37  and  _40
REMARK   17  A    between atoms: _40  and  _41
REMARK   18  A    between atoms: _44  and  _46
REMARK   19  A    between atoms: _46  and  _47
REMARK   20  A    between atoms: _46  and  _49
REMARK   21  A    between atoms: _49  and  _50
REMARK   22  A    between atoms: _50  and  _51
REMARK   23  A    between atoms: _54  and  _56
REMARK   24  A    between atoms: _56  and  _57
REMARK   25  A    between atoms: _56  and  _59
REMARK   26  A    between atoms: _59  and  _60
REMARK   27  A    between atoms: _60  and  _61
REMARK   28  A    between atoms: _66  and  _68
REMARK   29  A    between atoms: _68  and  _69
REMARK   30  A    between atoms: _68  and  _71
REMARK   31  A    between atoms: _71  and  _72
REMARK   32  A    between atoms: _78  and  _80
REMARK   33  A    between atoms: _80  and  _81
REMARK   34  A    between atoms: _83  and  _85
REMARK   35  A    between atoms: _85  and  _86
REMARK   36  A    between atoms: _85  and  _88
REMARK   37  A    between atoms: _88  and  _89
REMARK   38  A    between atoms: _91  and  _93
REMARK   39  A    between atoms: _93  and  _94
REMARK   40  A    between atoms: _93  and  _96
REMARK   41  A    between atoms: _96  and  _97
REMARK   42  A    between atoms: _97  and  _98
REMARK   43  A    between atoms: _100  and  _102
REMARK   44  A    between atoms: _102  and  _103
REMARK   45  A    between atoms: _102  and  _105
REMARK   46  A    between atoms: _105  and  _106
REMARK   47  A    between atoms: _116  and  _118
REMARK   48  A    between atoms: _118  and  _119
REMARK   49  A    between atoms: _118  and  _121
REMARK   50  A    between atoms: _121  and  _122
REMARK   51  A    between atoms: _128  and  _129
REMARK   52  A    between atoms: _134  and  _136
REMARK   53  A    between atoms: _136  and  _137
REMARK   54  A    between atoms: _136  and  _139
REMARK   55  A    between atoms: _139  and  _140
REMARK   56  A    between atoms: _150  and  _152
REMARK   57  A    between atoms: _152  and  _153
REMARK   58  A    between atoms: _152  and  _155
REMARK   59  A    between atoms: _155  and  _156
REMARK   60  A    between atoms: _159  and  _161
REMARK   61  A    between atoms: _161  and  _162
REMARK   62  A    between atoms: _161  and  _164
REMARK   63  A    between atoms: _164  and  _165
REMARK   64  A    between atoms: _170  and  _171
REMARK   65  A    between atoms: _173  and  _175
REMARK   66  A    between atoms: _175  and  _176
REMARK   67  A    between atoms: _178  and  _180
REMARK   68  A    between atoms: _180  and  _181
REMARK   69  A    between atoms: _183  and  _185
REMARK   70  A    between atoms: _185  and  _186
REMARK   71  A    between atoms: _188  and  _190
REMARK   72  A    between atoms: _190  and  _191
REMARK   73  A    between atoms: _190  and  _193
REMARK   74  A    between atoms: _193  and  _194
REMARK   75  A    between atoms: _200  and  _202
REMARK   76  A    between atoms: _202  and  _203
REMARK   77  A    between atoms: _202  and  _205
REMARK   78  A    between atoms: _205  and  _206
REMARK   79  A    between atoms: _211  and  _212
REMARK   80  A    between atoms: _214  and  _216
REMARK   81  A    between atoms: _216  and  _217
REMARK   82  A    between atoms: _216  and  _219
REMARK   83  A    between atoms: _219  and  _220
REMARK   84  A    between atoms: _222  and  _224
REMARK   85  A    between atoms: _224  and  _225
REMARK   86  A    between atoms: _227  and  _229
REMARK   87  A    between atoms: _229  and  _230
REMARK   88  A    between atoms: _229  and  _232
REMARK   89  A    between atoms: _232  and  _233
REMARK   90  A    between atoms: _235  and  _237
REMARK   91  A    between atoms: _237  and  _238
REMARK   92  A    between atoms: _237  and  _240
REMARK   93  A    between atoms: _240  and  _241
REMARK   94  A    between atoms: _243  and  _245
REMARK   95  A    between atoms: _245  and  _246
REMARK   96  A    between atoms: _245  and  _248
REMARK   97  A    between atoms: _248  and  _249
REMARK   98  A    between atoms: _252  and  _254
REMARK   99  A    between atoms: _254  and  _255
REMARK  100  A    between atoms: _254  and  _257
REMARK  101  A    between atoms: _257  and  _258
REMARK  102  A    between atoms: _261  and  _263
REMARK  103  A    between atoms: _263  and  _264
REMARK  104  A    between atoms: _263  and  _266
REMARK  105  A    between atoms: _269  and  _271
REMARK  106  A    between atoms: _271  and  _272
REMARK  107  A    between atoms: _271  and  _274
REMARK  108  A    between atoms: _274  and  _275
REMARK  109  A    between atoms: _280  and  _281
REMARK  110  A    between atoms: _283  and  _285
REMARK  111  A    between atoms: _285  and  _286
REMARK  112  A    between atoms: _285  and  _288
REMARK  113  A    between atoms: _288  and  _289
REMARK  114  A    between atoms: _294  and  _295
REMARK  115  A    between atoms: _297  and  _299
REMARK  116  A    between atoms: _299  and  _300
REMARK  117  A    between atoms: _299  and  _302
REMARK  118  A    between atoms: _305  and  _307
REMARK  119  A    between atoms: _307  and  _308
REMARK  120  A    between atoms: _307  and  _310
REMARK  121  A    between atoms: _310  and  _311
REMARK  122  A    between atoms: _311  and  _312
REMARK  123  A    between atoms: _315  and  _317
REMARK  124  A    between atoms: _317  and  _318
REMARK  125  A    between atoms: _317  and  _320
REMARK  126  A    between atoms: _320  and  _321
REMARK  127  A    between atoms: _323  and  _325
REMARK  128  A    between atoms: _325  and  _326
REMARK  129  A    between atoms: _329  and  _331
REMARK  130  A    between atoms: _331  and  _332
REMARK  131  A    between atoms: _334  and  _336
REMARK  132  A    between atoms: _336  and  _337
REMARK  133  A    between atoms: _336  and  _339
REMARK  134  A    between atoms: _339  and  _340
REMARK  135  A    between atoms: _342  and  _344
REMARK  136  A    between atoms: _344  and  _345
REMARK  137  A    between atoms: _344  and  _347
REMARK  138  A    between atoms: _347  and  _348
REMARK  139  A    between atoms: _358  and  _360
REMARK  140  A    between atoms: _360  and  _361
REMARK  141  A    between atoms: _360  and  _363
REMARK  142  A    between atoms: _363  and  _364
REMARK  143  A    between atoms: _364  and  _365
REMARK  144  A    between atoms: _368  and  _370
REMARK  145  A    between atoms: _370  and  _371
REMARK  146  A    between atoms: _370  and  _373
REMARK  147  A    between atoms: _373  and  _374
REMARK  148  A    between atoms: _384  and  _386
REMARK  149  A    between atoms: _386  and  _387
REMARK  150  A    between atoms: _386  and  _389
REMARK  151  A    between atoms: _389  and  _390
REMARK  152  A    between atoms: _395  and  _397
REMARK  153  A    between atoms: _397  and  _398
REMARK  154  A    between atoms: _397  and  _400
REMARK  155  A    between atoms: _400  and  _401
REMARK  156  A    between atoms: _404  and  _406
REMARK  157  A    between atoms: _406  and  _407
REMARK  158  A    between atoms: _406  and  _409
REMARK  159  A    between atoms: _409  and  _410
REMARK  160  A    between atoms: _416  and  _418
REMARK  161  A    between atoms: _418  and  _419
REMARK  162  A    between atoms: _418  and  _421
REMARK  163  A    between atoms: _421  and  _422
REMARK  164  A    between atoms: _425  and  _427
REMARK  165  A    between atoms: _427  and  _428
REMARK  166  A    between atoms: _427  and  _430
REMARK  167  A    between atoms: _430  and  _431
REMARK  168  A    between atoms: _433  and  _435
REMARK  169  A    between atoms: _435  and  _436
REMARK  170  A    between atoms: _435  and  _438
REMARK  171  A    between atoms: _438  and  _439
REMARK  172  A    between atoms: _442  and  _444
REMARK  173  A    between atoms: _444  and  _445
REMARK  174  A    between atoms: _444  and  _447
REMARK  175  A    between atoms: _447  and  _448
REMARK  176  A    between atoms: _454  and  _456
REMARK  177  A    between atoms: _456  and  _457
REMARK  178  A    between atoms: _456  and  _459
REMARK  179  A    between atoms: _459  and  _460
REMARK  180  A    between atoms: _460  and  _461
REMARK  181  A    between atoms: _461  and  _462
REMARK  182  A    between atoms: _471  and  _473
REMARK  183  A    between atoms: _473  and  _474
REMARK  184  A    between atoms: _473  and  _476
REMARK  185  A    between atoms: _476  and  _477
REMARK  186  A    between atoms: _483  and  _485
REMARK  187  A    between atoms: _485  and  _486
REMARK  188  A    between atoms: _485  and  _488
REMARK  189  A    between atoms: _488  and  _489
REMARK  190  A    between atoms: _491  and  _493
REMARK  191  A    between atoms: _493  and  _494
REMARK  192  A    between atoms: _493  and  _496
REMARK  193  A    between atoms: _496  and  _497
REMARK  194  A    between atoms: _502  and  _504
REMARK  195  A    between atoms: _504  and  _505
REMARK  196  A    between atoms: _504  and  _507
REMARK  197  A    between atoms: _507  and  _508
REMARK  198  A    between atoms: _508  and  _509
REMARK  199  A    between atoms: _512  and  _514
REMARK  200  A    between atoms: _514  and  _515
REMARK  201  A    between atoms: _517  and  _519
REMARK  202  A    between atoms: _519  and  _520
REMARK  203  A    between atoms: _519  and  _522
REMARK  204  A    between atoms: _522  and  _523
REMARK  205  A    between atoms: _525  and  _527
REMARK  206  A    between atoms: _527  and  _528
REMARK  207  A    between atoms: _527  and  _530
REMARK  208  A    between atoms: _530  and  _531
REMARK  209  A    between atoms: _537  and  _539
REMARK  210  A    between atoms: _539  and  _540
REMARK  211  A    between atoms: _539  and  _542
REMARK  212  A    between atoms: _542  and  _543
REMARK  213  A    between atoms: _549  and  _551
REMARK  214  A    between atoms: _551  and  _552
REMARK  215  A    between atoms: _551  and  _554
REMARK  216  A    between atoms: _554  and  _555
REMARK  217  A    between atoms: _558  and  _560
REMARK  218  A    between atoms: _560  and  _561
REMARK  219  A    between atoms: _560  and  _563
REMARK  220  A    between atoms: _563  and  _564
REMARK  221  A    between atoms: _567  and  _569
REMARK  222  A    between atoms: _569  and  _570
REMARK  223  A    between atoms: _569  and  _572
REMARK  224  A    between atoms: _572  and  _573
REMARK  225  A    between atoms: _578  and  _579
REMARK  226  A    between atoms: _581  and  _583
REMARK  227  A    between atoms: _583  and  _584
REMARK  228  A    between atoms: _586  and  _588
REMARK  229  A    between atoms: _588  and  _589
REMARK  230  A    between atoms: _592  and  _594
REMARK  231  A    between atoms: _594  and  _595
REMARK  232  A    between atoms: _594  and  _597
REMARK  233  A    between atoms: _597  and  _598
REMARK  234  A    between atoms: _601  and  _603
REMARK  235  A    between atoms: _603  and  _604
REMARK  236  A    between atoms: _603  and  _606
REMARK  237  A    between atoms: _606  and  _607
REMARK  238  A    between atoms: _609  and  _611
REMARK  239  A    between atoms: _611  and  _612
REMARK  240  A    between atoms: _611  and  _614
REMARK  241  A    between atoms: _617  and  _619
REMARK  242  A    between atoms: _619  and  _620
REMARK  243  A    between atoms: _619  and  _622
REMARK  244  A    between atoms: _622  and  _623
REMARK  245  A    between atoms: _628  and  _630
REMARK  246  A    between atoms: _630  and  _631
REMARK  247  A    between atoms: _630  and  _633
REMARK  248  A    between atoms: _633  and  _634
REMARK  249  A    between atoms: _644  and  _646
REMARK  250  A    between atoms: _646  and  _647
REMARK  251  A    between atoms: _646  and  _649
REMARK  252  A    between atoms: _649  and  _650
REMARK  253  A    between atoms: _650  and  _651
REMARK  254  A    between atoms: _653  and  _655
REMARK  255  A    between atoms: _655  and  _656
REMARK  256  A    between atoms: _655  and  _658
REMARK  257  A    between atoms: _658  and  _659
REMARK  258  A    between atoms: _662  and  _664
REMARK  259  A    between atoms: _664  and  _665
REMARK  260  A    between atoms: _664  and  _667
REMARK  261  A    between atoms: _667  and  _668
REMARK  262  A    between atoms: _673  and  _675
REMARK  263  A    between atoms: _675  and  _676
REMARK  264  A    between atoms: _678  and  _680
REMARK  265  A    between atoms: _680  and  _681
REMARK  266  A    between atoms: _680  and  _683
REMARK  267  A    between atoms: _683  and  _684
REMARK  268  A    between atoms: _689  and  _690
REMARK  269  A    between atoms: _692  and  _694
REMARK  270  A    between atoms: _694  and  _695
REMARK  271  A    between atoms: _694  and  _697
REMARK  272  A    between atoms: _697  and  _698
REMARK  273  A    between atoms: _698  and  _699
REMARK  274  A    between atoms: _702  and  _704
REMARK  275  A    between atoms: _704  and  _705
REMARK  276  A    between atoms: _704  and  _707
REMARK  277  A    between atoms: _707  and  _708
REMARK                            x       y       z     vdW  Elec       q    Type
REMARK                         _______ _______ _______ _____ _____    ______ ____
ROOT
ATOM      1  O   HOH     1       1.190  65.135  65.121  0.00  0.00    +0.000 OA
ENDROOT
TORSDOF 0
REMARK  Name = ../refined-set-2016/1h22/1h22_pocket.pdb
REMARK  277 active torsions:
REMARK  status: ('A' for Active; 'I' for Inactive)
REMARK    1  A    between atoms: _1  and  _3
REMARK    2  A    between atoms: _3  and  _4
REMARK    3  A    between atoms: _3  and  _6
REMARK    4  A    between atoms: _6  and  _7
REMARK    5  A    between atoms: _7  and  _8
REMARK    6  A    between atoms: _13  and  _15
REMARK    7  A    between atoms: _15  and  _16
REMARK    8  A    between atoms: _15  and  _18
REMARK    9  A    between atoms: _18  and  _19
REMARK   10  A    between atoms: _24  and  _25
REMARK   11  A    between atoms: _27  and  _29
REMARK   12  A    between atoms: _29  and  _30
REMARK   13  A    between atoms: _29  and  _32
REMARK   14  A    between atoms: _35  and  _37
REMARK   15  A    between atoms: _37  and  _38
REMARK   16  A    between atoms: _37  and  _40
REMARK   17  A    between atoms: _40  and  _41
REMARK   18  A    between atoms: _44  and  _46
REMARK   19  A    between atoms: _46  and  _47
REMARK   20  A    between atoms: _46  and  _49
REMARK   21  A    between atoms: _49  and  _50
REMARK   22  A    between atoms: _50  and  _51
REMARK   23  A    between atoms: _54  and  _56
REMARK   24  A    between atoms: _56  and  _57
REMARK   25  A    between atoms: _56  and  _59
REMARK   26  A    between atoms: _59  and  _60
REMARK   27  A    between atoms: _60  and  _61
REMARK   28  A    between atoms: _66  and  _68
REMARK   29  A    between atoms: _68  and  _69
REMARK   30  A    between atoms: _68  and  _71
REMARK   31  A    between atoms: _71  and  _72
REMARK   32  A    between atoms: _78  and  _80
REMARK   33  A    between atoms: _80  and  _81
REMARK   34  A    between atoms: _83  and  _85
REMARK   35  A    between atoms: _85  and  _86
REMARK   36  A    between atoms: _85  and  _88
REMARK   37  A    between atoms: _88  and  _89
REMARK   38  A    between atoms: _91  and  _93
REMARK   39  A    between atoms: _93  and  _94
REMARK   40  A    between atoms: _93  and  _96
REMARK   41  A    between atoms: _96  and  _97
REMARK   42  A    between atoms: _97  and  _98
REMARK   43  A    between atoms: _100  and  _102
REMARK   44  A    between atoms: _102  and  _103
REMARK   45  A    between atoms: _102  and  _105
REMARK   46  A    between atoms: _105  and  _106
REMARK   47  A    between atoms: _116  and  _118
REMARK   48  A    between atoms: _118  and  _119
REMARK   49  A    between atoms: _118  and  _121
REMARK   50  A    between atoms: _121  and  _122
REMARK   51  A    between atoms: _128  and  _129
REMARK   52  A    between atoms: _134  and  _136
REMARK   53  A    between atoms: _136  and  _137
REMARK   54  A    between atoms: _136  and  _139
REMARK   55  A    between atoms: _139  and  _140
REMARK   56  A    between atoms: _150  and  _152
REMARK   57  A    between atoms: _152  and  _153
REMARK   58  A    between atoms: _152  and  _155
REMARK   59  A    between atoms: _155  and  _156
REMARK   60  A    between atoms: _159  and  _161
REMARK   61  A    between atoms: _161  and  _162
REMARK   62  A    between atoms: _161  and  _164
REMARK   63  A    between atoms: _164  and  _165
REMARK   64  A    between atoms: _170  and  _171
REMARK   65  A    between atoms: _173  and  _175
REMARK   66  A    between atoms: _175  and  _176
REMARK   67  A    between atoms: _178  and  _180
REMARK   68  A    between atoms: _180  and  _181
REMARK   69  A    between atoms: _183  and  _185
REMARK   70  A    between atoms: _185  and  _186
REMARK   71  A    between atoms: _188  and  _190
REMARK   72  A    between atoms: _190  and  _191
REMARK   73  A    between atoms: _190  and  _193
REMARK   74  A    between atoms: _193  and  _194
REMARK   75  A    between atoms: _200  and  _202
REMARK   76  A    between atoms: _202  and  _203
REMARK   77  A    between atoms: _202  and  _205
REMARK   78  A    between atoms: _205  and  _206
REMARK   79  A    between atoms: _211  and  _212
REMARK   80  A    between atoms: _214  and  _216
REMARK   81  A    between atoms: _216  and  _217
REMARK   82  A    between atoms: _216  and  _219
REMARK   83  A    between atoms: _219  and  _220
REMARK   84  A    between atoms: _222  and  _224
REMARK   85  A    between atoms: _224  and  _225
REMARK   86  A    between atoms: _227  and  _229
REMARK   87  A    between atoms: _229  and  _230
REMARK   88  A    between atoms: _229  and  _232
REMARK   89  A    between atoms: _232  and  _233
REMARK   90  A    between atoms: _235  and  _237
REMARK   91  A    between atoms: _237  and  _238
REMARK   92  A    between atoms: _237  and  _240
REMARK   93  A    between atoms: _240  and  _241
REMARK   94  A    between atoms: _243  and  _245
REMARK   95  A    between atoms: _245  and  _246
REMARK   96  A    between atoms: _245  and  _248
REMARK   97  A    between atoms: _248  and  _249
REMARK   98  A    between atoms: _252  and  _254
REMARK   99  A    between atoms: _254  and  _255
REMARK  100  A    between atoms: _254  and  _257
REMARK  101  A    between atoms: _257  and  _258
REMARK  102  A    between atoms: _261  and  _263
REMARK  103  A    between atoms: _263  and  _264
REMARK  104  A    between atoms: _263  and  _266
REMARK  105  A    between atoms: _269  and  _271
REMARK  106  A    between atoms: _271  and  _272
REMARK  107  A    between atoms: _271  and  _274
REMARK  108  A    between atoms: _274  and  _275
REMARK  109  A    between atoms: _280  and  _281
REMARK  110  A    between atoms: _283  and  _285
REMARK  111  A    between atoms: _285  and  _286
REMARK  112  A    between atoms: _285  and  _288
REMARK  113  A    between atoms: _288  and  _289
REMARK  114  A    between atoms: _294  and  _295
REMARK  115  A    between atoms: _297  and  _299
REMARK  116  A    between atoms: _299  and  _300
REMARK  117  A    between atoms: _299  and  _302
REMARK  118  A    between atoms: _305  and  _307
REMARK  119  A    between atoms: _307  and  _308
REMARK  120  A    between atoms: _307  and  _310
REMARK  121  A    between atoms: _310  and  _311
REMARK  122  A    between atoms: _311  and  _312
REMARK  123  A    between atoms: _315  and  _317
REMARK  124  A    between atoms: _317  and  _318
REMARK  125  A    between atoms: _317  and  _320
REMARK  126  A    between atoms: _320  and  _321
REMARK  127  A    between atoms: _323  and  _325
REMARK  128  A    between atoms: _325  and  _326
REMARK  129  A    between atoms: _329  and  _331
REMARK  130  A    between atoms: _331  and  _332
REMARK  131  A    between atoms: _334  and  _336
REMARK  132  A    between atoms: _336  and  _337
REMARK  133  A    between atoms: _336  and  _339
REMARK  134  A    between atoms: _339  and  _340
REMARK  135  A    between atoms: _342  and  _344
REMARK  136  A    between atoms: _344  and  _345
REMARK  137  A    between atoms: _344  and  _347
REMARK  138  A    between atoms: _347  and  _348
REMARK  139  A    between atoms: _358  and  _360
REMARK  140  A    between atoms: _360  and  _361
REMARK  141  A    between atoms: _360  and  _363
REMARK  142  A    between atoms: _363  and  _364
REMARK  143  A    between atoms: _364  and  _365
REMARK  144  A    between atoms: _368  and  _370
REMARK  145  A    between atoms: _370  and  _371
REMARK  146  A    between atoms: _370  and  _373
REMARK  147  A    between atoms: _373  and  _374
REMARK  148  A    between atoms: _384  and  _386
REMARK  149  A    between atoms: _386  and  _387
REMARK  150  A    between atoms: _386  and  _389
REMARK  151  A    between atoms: _389  and  _390
REMARK  152  A    between atoms: _395  and  _397
REMARK  153  A    between atoms: _397  and  _398
REMARK  154  A    between atoms: _397  and  _400
REMARK  155  A    between atoms: _400  and  _401
REMARK  156  A    between atoms: _404  and  _406
REMARK  157  A    between atoms: _406  and  _407
REMARK  158  A    between atoms: _406  and  _409
REMARK  159  A    between atoms: _409  and  _410
REMARK  160  A    between atoms: _416  and  _418
REMARK  161  A    between atoms: _418  and  _419
REMARK  162  A    between atoms: _418  and  _421
REMARK  163  A    between atoms: _421  and  _422
REMARK  164  A    between atoms: _425  and  _427
REMARK  165  A    between atoms: _427  and  _428
REMARK  166  A    between atoms: _427  and  _430
REMARK  167  A    between atoms: _430  and  _431
REMARK  168  A    between atoms: _433  and  _435
REMARK  169  A    between atoms: _435  and  _436
REMARK  170  A    between atoms: _435  and  _438
REMARK  171  A    between atoms: _438  and  _439
REMARK  172  A    between atoms: _442  and  _444
REMARK  173  A    between atoms: _444  and  _445
REMARK  174  A    between atoms: _444  and  _447
REMARK  175  A    between atoms: _447  and  _448
REMARK  176  A    between atoms: _454  and  _456
REMARK  177  A    between atoms: _456  and  _457
REMARK  178  A    between atoms: _456  and  _459
REMARK  179  A    between atoms: _459  and  _460
REMARK  180  A    between atoms: _460  and  _461
REMARK  181  A    between atoms: _461  and  _462
REMARK  182  A    between atoms: _471  and  _473
REMARK  183  A    between atoms: _473  and  _474
REMARK  184  A    between atoms: _473  and  _476
REMARK  185  A    between atoms: _476  and  _477
REMARK  186  A    between atoms: _483  and  _485
REMARK  187  A    between atoms: _485  and  _486
REMARK  188  A    between atoms: _485  and  _488
REMARK  189  A    between atoms: _488  and  _489
REMARK  190  A    between atoms: _491  and  _493
REMARK  191  A    between atoms: _493  and  _494
REMARK  192  A    between atoms: _493  and  _496
REMARK  193  A    between atoms: _496  and  _497
REMARK  194  A    between atoms: _502  and  _504
REMARK  195  A    between atoms: _504  and  _505
REMARK  196  A    between atoms: _504  and  _507
REMARK  197  A    between atoms: _507  and  _508
REMARK  198  A    between atoms: _508  and  _509
REMARK  199  A    between atoms: _512  and  _514
REMARK  200  A    between atoms: _514  and  _515
REMARK  201  A    between atoms: _517  and  _519
REMARK  202  A    between atoms: _519  and  _520
REMARK  203  A    between atoms: _519  and  _522
REMARK  204  A    between atoms: _522  and  _523
REMARK  205  A    between atoms: _525  and  _527
REMARK  206  A    between atoms: _527  and  _528
REMARK  207  A    between atoms: _527  and  _530
REMARK  208  A    between atoms: _530  and  _531
REMARK  209  A    between atoms: _537  and  _539
REMARK  210  A    between atoms: _539  and  _540
REMARK  211  A    between atoms: _539  and  _542
REMARK  212  A    between atoms: _542  and  _543
REMARK  213  A    between atoms: _549  and  _551
REMARK  214  A    between atoms: _551  and  _552
REMARK  215  A    between atoms: _551  and  _554
REMARK  216  A    between atoms: _554  and  _555
REMARK  217  A    between atoms: _558  and  _560
REMARK  218  A    between atoms: _560  and  _561
REMARK  219  A    between atoms: _560  and  _563
REMARK  220  A    between atoms: _563  and  _564
REMARK  221  A    between atoms: _567  and  _569
REMARK  222  A    between atoms: _569  and  _570
REMARK  223  A    between atoms: _569  and  _572
REMARK  224  A    between atoms: _572  and  _573
REMARK  225  A    between atoms: _578  and  _579
REMARK  226  A    between atoms: _581  and  _583
REMARK  227  A    between atoms: _583  and  _584
REMARK  228  A    between atoms: _586  and  _588
REMARK  229  A    between atoms: _588  and  _589
REMARK  230  A    between atoms: _592  and  _594
REMARK  231  A    between atoms: _594  and  _595
REMARK  232  A    between atoms: _594  and  _597
REMARK  233  A    between atoms: _597  and  _598
REMARK  234  A    between atoms: _601  and  _603
REMARK  235  A    between atoms: _603  and  _604
REMARK  236  A    between atoms: _603  and  _606
REMARK  237  A    between atoms: _606  and  _607
REMARK  238  A    between atoms: _609  and  _611
REMARK  239  A    between atoms: _611  and  _612
REMARK  240  A    between atoms: _611  and  _614
REMARK  241  A    between atoms: _617  and  _619
REMARK  242  A    between atoms: _619  and  _620
REMARK  243  A    between atoms: _619  and  _622
REMARK  244  A    between atoms: _622  and  _623
REMARK  245  A    between atoms: _628  and  _630
REMARK  246  A    between atoms: _630  and  _631
REMARK  247  A    between atoms: _630  and  _633
REMARK  248  A    between atoms: _633  and  _634
REMARK  249  A    between atoms: _644  and  _646
REMARK  250  A    between atoms: _646  and  _647
REMARK  251  A    between atoms: _646  and  _649
REMARK  252  A    between atoms: _649  and  _650
REMARK  253  A    between atoms: _650  and  _651
REMARK  254  A    between atoms: _653  and  _655
REMARK  255  A    between atoms: _655  and  _656
REMARK  256  A    between atoms: _655  and  _658
REMARK  257  A    between atoms: _658  and  _659
REMARK  258  A    between atoms: _662  and  _664
REMARK  259  A    between atoms: _664  and  _665
REMARK  260  A    between atoms: _664  and  _667
REMARK  261  A    between atoms: _667  and  _668
REMARK  262  A    between atoms: _673  and  _675
REMARK  263  A    between atoms: _675  and  _676
REMARK  264  A    between atoms: _678  and  _680
REMARK  265  A    between atoms: _680  and  _681
REMARK  266  A    between atoms: _680  and  _683
REMARK  267  A    between atoms: _683  and  _684
REMARK  268  A    between atoms: _689  and  _690
REMARK  269  A    between atoms: _692  and  _694
REMARK  270  A    between atoms: _694  and  _695
REMARK  271  A    between atoms: _694  and  _697
REMARK  272  A    between atoms: _697  and  _698
REMARK  273  A    between atoms: _698  and  _699
REMARK  274  A    between atoms: _702  and  _704
REMARK  275  A    between atoms: _704  and  _705
REMARK  276  A    between atoms: _704  and  _707
REMARK  277  A    between atoms: _707  and  _708
REMARK                            x       y       z     vdW  Elec       q    Type
REMARK                         _______ _______ _______ _____ _____    ______ ____
ROOT
ATOM      1  O   HOH     1      -1.294  60.517  76.273  0.00  0.00    +0.000 OA
ENDROOT
TORSDOF 0
REMARK  Name = ../refined-set-2016/1h22/1h22_pocket.pdb
REMARK  277 active torsions:
REMARK  status: ('A' for Active; 'I' for Inactive)
REMARK    1  A    between atoms: _1  and  _3
REMARK    2  A    between atoms: _3  and  _4
REMARK    3  A    between atoms: _3  and  _6
REMARK    4  A    between atoms: _6  and  _7
REMARK    5  A    between atoms: _7  and  _8
REMARK    6  A    between atoms: _13  and  _15
REMARK    7  A    between atoms: _15  and  _16
REMARK    8  A    between atoms: _15  and  _18
REMARK    9  A    between atoms: _18  and  _19
REMARK   10  A    between atoms: _24  and  _25
REMARK   11  A    between atoms: _27  and  _29
REMARK   12  A    between atoms: _29  and  _30
REMARK   13  A    between atoms: _29  and  _32
REMARK   14  A    between atoms: _35  and  _37
REMARK   15  A    between atoms: _37  and  _38
REMARK   16  A    between atoms: _37  and  _40
REMARK   17  A    between atoms: _40  and  _41
REMARK   18  A    between atoms: _44  and  _46
REMARK   19  A    between atoms: _46  and  _47
REMARK   20  A    between atoms: _46  and  _49
REMARK   21  A    between atoms: _49  and  _50
REMARK   22  A    between atoms: _50  and  _51
REMARK   23  A    between atoms: _54  and  _56
REMARK   24  A    between atoms: _56  and  _57
REMARK   25  A    between atoms: _56  and  _59
REMARK   26  A    between atoms: _59  and  _60
REMARK   27  A    between atoms: _60  and  _61
REMARK   28  A    between atoms: _66  and  _68
REMARK   29  A    between atoms: _68  and  _69
REMARK   30  A    between atoms: _68  and  _71
REMARK   31  A    between atoms: _71  and  _72
REMARK   32  A    between atoms: _78  and  _80
REMARK   33  A    between atoms: _80  and  _81
REMARK   34  A    between atoms: _83  and  _85
REMARK   35  A    between atoms: _85  and  _86
REMARK   36  A    between atoms: _85  and  _88
REMARK   37  A    between atoms: _88  and  _89
REMARK   38  A    between atoms: _91  and  _93
REMARK   39  A    between atoms: _93  and  _94
REMARK   40  A    between atoms: _93  and  _96
REMARK   41  A    between atoms: _96  and  _97
REMARK   42  A    between atoms: _97  and  _98
REMARK   43  A    between atoms: _100  and  _102
REMARK   44  A    between atoms: _102  and  _103
REMARK   45  A    between atoms: _102  and  _105
REMARK   46  A    between atoms: _105  and  _106
REMARK   47  A    between atoms: _116  and  _118
REMARK   48  A    between atoms: _118  and  _119
REMARK   49  A    between atoms: _118  and  _121
REMARK   50  A    between atoms: _121  and  _122
REMARK   51  A    between atoms: _128  and  _129
REMARK   52  A    between atoms: _134  and  _136
REMARK   53  A    between atoms: _136  and  _137
REMARK   54  A    between atoms: _136  and  _139
REMARK   55  A    between atoms: _139  and  _140
REMARK   56  A    between atoms: _150  and  _152
REMARK   57  A    between atoms: _152  and  _153
REMARK   58  A    between atoms: _152  and  _155
REMARK   59  A    between atoms: _155  and  _156
REMARK   60  A    between atoms: _159  and  _161
REMARK   61  A    between atoms: _161  and  _162
REMARK   62  A    between atoms: _161  and  _164
REMARK   63  A    between atoms: _164  and  _165
REMARK   64  A    between atoms: _170  and  _171
REMARK   65  A    between atoms: _173  and  _175
REMARK   66  A    between atoms: _175  and  _176
REMARK   67  A    between atoms: _178  and  _180
REMARK   68  A    between atoms: _180  and  _181
REMARK   69  A    between atoms: _183  and  _185
REMARK   70  A    between atoms: _185  and  _186
REMARK   71  A    between atoms: _188  and  _190
REMARK   72  A    between atoms: _190  and  _191
REMARK   73  A    between atoms: _190  and  _193
REMARK   74  A    between atoms: _193  and  _194
REMARK   75  A    between atoms: _200  and  _202
REMARK   76  A    between atoms: _202  and  _203
REMARK   77  A    between atoms: _202  and  _205
REMARK   78  A    between atoms: _205  and  _206
REMARK   79  A    between atoms: _211  and  _212
REMARK   80  A    between atoms: _214  and  _216
REMARK   81  A    between atoms: _216  and  _217
REMARK   82  A    between atoms: _216  and  _219
REMARK   83  A    between atoms: _219  and  _220
REMARK   84  A    between atoms: _222  and  _224
REMARK   85  A    between atoms: _224  and  _225
REMARK   86  A    between atoms: _227  and  _229
REMARK   87  A    between atoms: _229  and  _230
REMARK   88  A    between atoms: _229  and  _232
REMARK   89  A    between atoms: _232  and  _233
REMARK   90  A    between atoms: _235  and  _237
REMARK   91  A    between atoms: _237  and  _238
REMARK   92  A    between atoms: _237  and  _240
REMARK   93  A    between atoms: _240  and  _241
REMARK   94  A    between atoms: _243  and  _245
REMARK   95  A    between atoms: _245  and  _246
REMARK   96  A    between atoms: _245  and  _248
REMARK   97  A    between atoms: _248  and  _249
REMARK   98  A    between atoms: _252  and  _254
REMARK   99  A    between atoms: _254  and  _255
REMARK  100  A    between atoms: _254  and  _257
REMARK  101  A    between atoms: _257  and  _258
REMARK  102  A    between atoms: _261  and  _263
REMARK  103  A    between atoms: _263  and  _264
REMARK  104  A    between atoms: _263  and  _266
REMARK  105  A    between atoms: _269  and  _271
REMARK  106  A    between atoms: _271  and  _272
REMARK  107  A    between atoms: _271  and  _274
REMARK  108  A    between atoms: _274  and  _275
REMARK  109  A    between atoms: _280  and  _281
REMARK  110  A    between atoms: _283  and  _285
REMARK  111  A    between atoms: _285  and  _286
REMARK  112  A    between atoms: _285  and  _288
REMARK  113  A    between atoms: _288  and  _289
REMARK  114  A    between atoms: _294  and  _295
REMARK  115  A    between atoms: _297  and  _299
REMARK  116  A    between atoms: _299  and  _300
REMARK  117  A    between atoms: _299  and  _302
REMARK  118  A    between atoms: _305  and  _307
REMARK  119  A    between atoms: _307  and  _308
REMARK  120  A    between atoms: _307  and  _310
REMARK  121  A    between atoms: _310  and  _311
REMARK  122  A    between atoms: _311  and  _312
REMARK  123  A    between atoms: _315  and  _317
REMARK  124  A    between atoms: _317  and  _318
REMARK  125  A    between atoms: _317  and  _320
REMARK  126  A    between atoms: _320  and  _321
REMARK  127  A    between atoms: _323  and  _325
REMARK  128  A    between atoms: _325  and  _326
REMARK  129  A    between atoms: _329  and  _331
REMARK  130  A    between atoms: _331  and  _332
REMARK  131  A    between atoms: _334  and  _336
REMARK  132  A    between atoms: _336  and  _337
REMARK  133  A    between atoms: _336  and  _339
REMARK  134  A    between atoms: _339  and  _340
REMARK  135  A    between atoms: _342  and  _344
REMARK  136  A    between atoms: _344  and  _345
REMARK  137  A    between atoms: _344  and  _347
REMARK  138  A    between atoms: _347  and  _348
REMARK  139  A    between atoms: _358  and  _360
REMARK  140  A    between atoms: _360  and  _361
REMARK  141  A    between atoms: _360  and  _363
REMARK  142  A    between atoms: _363  and  _364
REMARK  143  A    between atoms: _364  and  _365
REMARK  144  A    between atoms: _368  and  _370
REMARK  145  A    between atoms: _370  and  _371
REMARK  146  A    between atoms: _370  and  _373
REMARK  147  A    between atoms: _373  and  _374
REMARK  148  A    between atoms: _384  and  _386
REMARK  149  A    between atoms: _386  and  _387
REMARK  150  A    between atoms: _386  and  _389
REMARK  151  A    between atoms: _389  and  _390
REMARK  152  A    between atoms: _395  and  _397
REMARK  153  A    between atoms: _397  and  _398
REMARK  154  A    between atoms: _397  and  _400
REMARK  155  A    between atoms: _400  and  _401
REMARK  156  A    between atoms: _404  and  _406
REMARK  157  A    between atoms: _406  and  _407
REMARK  158  A    between atoms: _406  and  _409
REMARK  159  A    between atoms: _409  and  _410
REMARK  160  A    between atoms: _416  and  _418
REMARK  161  A    between atoms: _418  and  _419
REMARK  162  A    between atoms: _418  and  _421
REMARK  163  A    between atoms: _421  and  _422
REMARK  164  A    between atoms: _425  and  _427
REMARK  165  A    between atoms: _427  and  _428
REMARK  166  A    between atoms: _427  and  _430
REMARK  167  A    between atoms: _430  and  _431
REMARK  168  A    between atoms: _433  and  _435
REMARK  169  A    between atoms: _435  and  _436
REMARK  170  A    between atoms: _435  and  _438
REMARK  171  A    between atoms: _438  and  _439
REMARK  172  A    between atoms: _442  and  _444
REMARK  173  A    between atoms: _444  and  _445
REMARK  174  A    between atoms: _444  and  _447
REMARK  175  A    between atoms: _447  and  _448
REMARK  176  A    between atoms: _454  and  _456
REMARK  177  A    between atoms: _456  and  _457
REMARK  178  A    between atoms: _456  and  _459
REMARK  179  A    between atoms: _459  and  _460
REMARK  180  A    between atoms: _460  and  _461
REMARK  181  A    between atoms: _461  and  _462
REMARK  182  A    between atoms: _471  and  _473
REMARK  183  A    between atoms: _473  and  _474
REMARK  184  A    between atoms: _473  and  _476
REMARK  185  A    between atoms: _476  and  _477
REMARK  186  A    between atoms: _483  and  _485
REMARK  187  A    between atoms: _485  and  _486
REMARK  188  A    between atoms: _485  and  _488
REMARK  189  A    between atoms: _488  and  _489
REMARK  190  A    between atoms: _491  and  _493
REMARK  191  A    between atoms: _493  and  _494
REMARK  192  A    between atoms: _493  and  _496
REMARK  193  A    between atoms: _496  and  _497
REMARK  194  A    between atoms: _502  and  _504
REMARK  195  A    between atoms: _504  and  _505
REMARK  196  A    between atoms: _504  and  _507
REMARK  197  A    between atoms: _507  and  _508
REMARK  198  A    between atoms: _508  and  _509
REMARK  199  A    between atoms: _512  and  _514
REMARK  200  A    between atoms: _514  and  _515
REMARK  201  A    between atoms: _517  and  _519
REMARK  202  A    between atoms: _519  and  _520
REMARK  203  A    between atoms: _519  and  _522
REMARK  204  A    between atoms: _522  and  _523
REMARK  205  A    between atoms: _525  and  _527
REMARK  206  A    between atoms: _527  and  _528
REMARK  207  A    between atoms: _527  and  _530
REMARK  208  A    between atoms: _530  and  _531
REMARK  209  A    between atoms: _537  and  _539
REMARK  210  A    between atoms: _539  and  _540
REMARK  211  A    between atoms: _539  and  _542
REMARK  212  A    between atoms: _542  and  _543
REMARK  213  A    between atoms: _549  and  _551
REMARK  214  A    between atoms: _551  and  _552
REMARK  215  A    between atoms: _551  and  _554
REMARK  216  A    between atoms: _554  and  _555
REMARK  217  A    between atoms: _558  and  _560
REMARK  218  A    between atoms: _560  and  _561
REMARK  219  A    between atoms: _560  and  _563
REMARK  220  A    between atoms: _563  and  _564
REMARK  221  A    between atoms: _567  and  _569
REMARK  222  A    between atoms: _569  and  _570
REMARK  223  A    between atoms: _569  and  _572
REMARK  224  A    between atoms: _572  and  _573
REMARK  225  A    between atoms: _578  and  _579
REMARK  226  A    between atoms: _581  and  _583
REMARK  227  A    between atoms: _583  and  _584
REMARK  228  A    between atoms: _586  and  _588
REMARK  229  A    between atoms: _588  and  _589
REMARK  230  A    between atoms: _592  and  _594
REMARK  231  A    between atoms: _594  and  _595
REMARK  232  A    between atoms: _594  and  _597
REMARK  233  A    between atoms: _597  and  _598
REMARK  234  A    between atoms: _601  and  _603
REMARK  235  A    between atoms: _603  and  _604
REMARK  236  A    between atoms: _603  and  _606
REMARK  237  A    between atoms: _606  and  _607
REMARK  238  A    between atoms: _609  and  _611
REMARK  239  A    between atoms: _611  and  _612
REMARK  240  A    between atoms: _611  and  _614
REMARK  241  A    between atoms: _617  and  _619
REMARK  242  A    between atoms: _619  and  _620
REMARK  243  A    between atoms: _619  and  _622
REMARK  244  A    between atoms: _622  and  _623
REMARK  245  A    between atoms: _628  and  _630
REMARK  246  A    between atoms: _630  and  _631
REMARK  247  A    between atoms: _630  and  _633
REMARK  248  A    between atoms: _633  and  _634
REMARK  249  A    between atoms: _644  and  _646
REMARK  250  A    between atoms: _646  and  _647
REMARK  251  A    between atoms: _646  and  _649
REMARK  252  A    between atoms: _649  and  _650
REMARK  253  A    between atoms: _650  and  _651
REMARK  254  A    between atoms: _653  and  _655
REMARK  255  A    between atoms: _655  and  _656
REMARK  256  A    between atoms: _655  and  _658
REMARK  257  A    between atoms: _658  and  _659
REMARK  258  A    between atoms: _662  and  _664
REMARK  259  A    between atoms: _664  and  _665
REMARK  260  A    between atoms: _664  and  _667
REMARK  261  A    between atoms: _667  and  _668
REMARK  262  A    between atoms: _673  and  _675
REMARK  263  A    between atoms: _675  and  _676
REMARK  264  A    between atoms: _678  and  _680
REMARK  265  A    between atoms: _680  and  _681
REMARK  266  A    between atoms: _680  and  _683
REMARK  267  A    between atoms: _683  and  _684
REMARK  268  A    between atoms: _689  and  _690
REMARK  269  A    between atoms: _692  and  _694
REMARK  270  A    between atoms: _694  and  _695
REMARK  271  A    between atoms: _694  and  _697
REMARK  272  A    between atoms: _697  and  _698
REMARK  273  A    between atoms: _698  and  _699
REMARK  274  A    between atoms: _702  and  _704
REMARK  275  A    between atoms: _704  and  _705
REMARK  276  A    between atoms: _704  and  _707
REMARK  277  A    between atoms: _707  and  _708
REMARK                            x       y       z     vdW  Elec       q    Type
REMARK                         _______ _______ _______ _____ _____    ______ ____
ROOT
ATOM      1  O   HOH     1       1.532  62.892  75.232  0.00  0.00    +0.000 OA
ENDROOT
TORSDOF 0
