REMARK  Name = ../refined-set-2016/2xbv/2xbv_pocket.pdb
REMARK  244 active torsions:
REMARK  status: ('A' for Active; 'I' for Inactive)
REMARK    1  A    between atoms: _1  and  _5
REMARK    2  A    between atoms: _5  and  _6
REMARK    3  A    between atoms: _5  and  _8
REMARK    4  A    between atoms: _8  and  _9
REMARK    5  A    between atoms: _12  and  _14
REMARK    6  A    between atoms: _14  and  _15
REMARK    7  A    between atoms: _14  and  _17
REMARK    8  A    between atoms: _20  and  _22
REMARK    9  A    between atoms: _22  and  _23
REMARK   10  A    between atoms: _22  and  _25
REMARK   11  A    between atoms: _25  and  _26
REMARK   12  A    between atoms: _31  and  _33
REMARK   13  A    between atoms: _33  and  _34
REMARK   14  A    between atoms: _33  and  _36
REMARK   15  A    between atoms: _36  and  _37
REMARK   16  A    between atoms: _37  and  _38
REMARK   17  A    between atoms: _43  and  _45
REMARK   18  A    between atoms: _45  and  _46
REMARK   19  A    between atoms: _45  and  _48
REMARK   20  A    between atoms: _48  and  _49
REMARK   21  A    between atoms: _55  and  _57
REMARK   22  A    between atoms: _57  and  _58
REMARK   23  A    between atoms: _57  and  _60
REMARK   24  A    between atoms: _60  and  _61
REMARK   25  A    between atoms: _64  and  _66
REMARK   26  A    between atoms: _66  and  _67
REMARK   27  A    between atoms: _66  and  _69
REMARK   28  A    between atoms: _69  and  _70
REMARK   29  A    between atoms: _70  and  _71
REMARK   30  A    between atoms: _71  and  _72
REMARK   31  A    between atoms: _72  and  _73
REMARK   32  A    between atoms: _77  and  _79
REMARK   33  A    between atoms: _79  and  _80
REMARK   34  A    between atoms: _79  and  _82
REMARK   35  A    between atoms: _82  and  _83
REMARK   36  A    between atoms: _83  and  _84
REMARK   37  A    between atoms: _87  and  _89
REMARK   38  A    between atoms: _89  and  _90
REMARK   39  A    between atoms: _89  and  _92
REMARK   40  A    between atoms: _92  and  _93
REMARK   41  A    between atoms: _96  and  _98
REMARK   42  A    between atoms: _98  and  _99
REMARK   43  A    between atoms: _98  and  _101
REMARK   44  A    between atoms: _101  and  _102
REMARK   45  A    between atoms: _107  and  _108
REMARK   46  A    between atoms: _110  and  _112
REMARK   47  A    between atoms: _112  and  _113
REMARK   48  A    between atoms: _112  and  _115
REMARK   49  A    between atoms: _115  and  _116
REMARK   50  A    between atoms: _119  and  _121
REMARK   51  A    between atoms: _121  and  _122
REMARK   52  A    between atoms: _121  and  _124
REMARK   53  A    between atoms: _124  and  _125
REMARK   54  A    between atoms: _128  and  _130
REMARK   55  A    between atoms: _130  and  _131
REMARK   56  A    between atoms: _130  and  _133
REMARK   57  A    between atoms: _136  and  _138
REMARK   58  A    between atoms: _138  and  _139
REMARK   59  A    between atoms: _141  and  _143
REMARK   60  A    between atoms: _143  and  _144
REMARK   61  A    between atoms: _143  and  _146
REMARK   62  A    between atoms: _146  and  _147
REMARK   63  A    between atoms: _147  and  _148
REMARK   64  A    between atoms: _148  and  _149
REMARK   65  A    between atoms: _158  and  _160
REMARK   66  A    between atoms: _160  and  _161
REMARK   67  A    between atoms: _160  and  _163
REMARK   68  A    between atoms: _163  and  _164
REMARK   69  A    between atoms: _167  and  _169
REMARK   70  A    between atoms: _169  and  _170
REMARK   71  A    between atoms: _169  and  _172
REMARK   72  A    between atoms: _172  and  _173
REMARK   73  A    between atoms: _178  and  _180
REMARK   74  A    between atoms: _180  and  _181
REMARK   75  A    between atoms: _180  and  _183
REMARK   76  A    between atoms: _183  and  _184
REMARK   77  A    between atoms: _184  and  _185
REMARK   78  A    between atoms: _188  and  _190
REMARK   79  A    between atoms: _190  and  _191
REMARK   80  A    between atoms: _190  and  _193
REMARK   81  A    between atoms: _193  and  _194
REMARK   82  A    between atoms: _194  and  _195
REMARK   83  A    between atoms: _195  and  _196
REMARK   84  A    between atoms: _196  and  _197
REMARK   85  A    between atoms: _201  and  _203
REMARK   86  A    between atoms: _203  and  _204
REMARK   87  A    between atoms: _206  and  _208
REMARK   88  A    between atoms: _208  and  _209
REMARK   89  A    between atoms: _208  and  _211
REMARK   90  A    between atoms: _212  and  _213
REMARK   91  A    between atoms: _216  and  _218
REMARK   92  A    between atoms: _218  and  _219
REMARK   93  A    between atoms: _218  and  _221
REMARK   94  A    between atoms: _221  and  _222
REMARK   95  A    between atoms: _222  and  _223
REMARK   96  A    between atoms: _228  and  _230
REMARK   97  A    between atoms: _230  and  _231
REMARK   98  A    between atoms: _230  and  _233
REMARK   99  A    between atoms: _233  and  _234
REMARK  100  A    between atoms: _237  and  _239
REMARK  101  A    between atoms: _239  and  _240
REMARK  102  A    between atoms: _239  and  _242
REMARK  103  A    between atoms: _245  and  _247
REMARK  104  A    between atoms: _247  and  _248
REMARK  105  A    between atoms: _247  and  _250
REMARK  106  A    between atoms: _250  and  _251
REMARK  107  A    between atoms: _253  and  _255
REMARK  108  A    between atoms: _255  and  _256
REMARK  109  A    between atoms: _255  and  _258
REMARK  110  A    between atoms: _258  and  _259
REMARK  111  A    between atoms: _261  and  _263
REMARK  112  A    between atoms: _263  and  _264
REMARK  113  A    between atoms: _263  and  _266
REMARK  114  A    between atoms: _266  and  _267
REMARK  115  A    between atoms: _273  and  _275
REMARK  116  A    between atoms: _275  and  _276
REMARK  117  A    between atoms: _275  and  _278
REMARK  118  A    between atoms: _278  and  _279
REMARK  119  A    between atoms: _282  and  _284
REMARK  120  A    between atoms: _284  and  _285
REMARK  121  A    between atoms: _284  and  _287
REMARK  122  A    between atoms: _287  and  _288
REMARK  123  A    between atoms: _291  and  _293
REMARK  124  A    between atoms: _293  and  _294
REMARK  125  A    between atoms: _293  and  _296
REMARK  126  A    between atoms: _296  and  _297
REMARK  127  A    between atoms: _300  and  _302
REMARK  128  A    between atoms: _302  and  _303
REMARK  129  A    between atoms: _302  and  _305
REMARK  130  A    between atoms: _305  and  _306
REMARK  131  A    between atoms: _306  and  _307
REMARK  132  A    between atoms: _309  and  _311
REMARK  133  A    between atoms: _311  and  _312
REMARK  134  A    between atoms: _311  and  _314
REMARK  135  A    between atoms: _314  and  _315
REMARK  136  A    between atoms: _321  and  _323
REMARK  137  A    between atoms: _323  and  _324
REMARK  138  A    between atoms: _323  and  _326
REMARK  139  A    between atoms: _328  and  _330
REMARK  140  A    between atoms: _330  and  _331
REMARK  141  A    between atoms: _334  and  _336
REMARK  142  A    between atoms: _336  and  _337
REMARK  143  A    between atoms: _339  and  _341
REMARK  144  A    between atoms: _341  and  _342
REMARK  145  A    between atoms: _341  and  _344
REMARK  146  A    between atoms: _344  and  _345
REMARK  147  A    between atoms: _345  and  _346
REMARK  148  A    between atoms: _349  and  _351
REMARK  149  A    between atoms: _351  and  _352
REMARK  150  A    between atoms: _351  and  _354
REMARK  151  A    between atoms: _354  and  _355
REMARK  152  A    between atoms: _358  and  _360
REMARK  153  A    between atoms: _360  and  _361
REMARK  154  A    between atoms: _364  and  _366
REMARK  155  A    between atoms: _366  and  _367
REMARK  156  A    between atoms: _366  and  _369
REMARK  157  A    between atoms: _369  and  _370
REMARK  158  A    between atoms: _370  and  _493
REMARK  159  A    between atoms: _371  and  _373
REMARK  160  A    between atoms: _373  and  _374
REMARK  161  A    between atoms: _373  and  _376
REMARK  162  A    between atoms: _376  and  _377
REMARK  163  A    between atoms: _377  and  _378
REMARK  164  A    between atoms: _383  and  _385
REMARK  165  A    between atoms: _385  and  _386
REMARK  166  A    between atoms: _388  and  _390
REMARK  167  A    between atoms: _390  and  _391
REMARK  168  A    between atoms: _390  and  _393
REMARK  169  A    between atoms: _393  and  _394
REMARK  170  A    between atoms: _397  and  _399
REMARK  171  A    between atoms: _399  and  _400
REMARK  172  A    between atoms: _399  and  _402
REMARK  173  A    between atoms: _402  and  _403
REMARK  174  A    between atoms: _405  and  _407
REMARK  175  A    between atoms: _407  and  _408
REMARK  176  A    between atoms: _410  and  _412
REMARK  177  A    between atoms: _412  and  _413
REMARK  178  A    between atoms: _415  and  _417
REMARK  179  A    between atoms: _417  and  _418
REMARK  180  A    between atoms: _417  and  _420
REMARK  181  A    between atoms: _420  and  _421
REMARK  182  A    between atoms: _426  and  _428
REMARK  183  A    between atoms: _428  and  _429
REMARK  184  A    between atoms: _428  and  _431
REMARK  185  A    between atoms: _431  and  _432
REMARK  186  A    between atoms: _435  and  _437
REMARK  187  A    between atoms: _437  and  _438
REMARK  188  A    between atoms: _437  and  _440
REMARK  189  A    between atoms: _443  and  _445
REMARK  190  A    between atoms: _445  and  _446
REMARK  191  A    between atoms: _445  and  _448
REMARK  192  A    between atoms: _448  and  _449
REMARK  193  A    between atoms: _451  and  _453
REMARK  194  A    between atoms: _453  and  _454
REMARK  195  A    between atoms: _453  and  _456
REMARK  196  A    between atoms: _456  and  _457
REMARK  197  A    between atoms: _467  and  _469
REMARK  198  A    between atoms: _469  and  _470
REMARK  199  A    between atoms: _472  and  _474
REMARK  200  A    between atoms: _474  and  _475
REMARK  201  A    between atoms: _474  and  _477
REMARK  202  A    between atoms: _477  and  _478
REMARK  203  A    between atoms: _478  and  _479
REMARK  204  A    between atoms: _482  and  _484
REMARK  205  A    between atoms: _484  and  _485
REMARK  206  A    between atoms: _487  and  _489
REMARK  207  A    between atoms: _489  and  _490
REMARK  208  A    between atoms: _489  and  _492
REMARK  209  A    between atoms: _492  and  _493
REMARK  210  A    between atoms: _494  and  _496
REMARK  211  A    between atoms: _496  and  _497
REMARK  212  A    between atoms: _500  and  _502
REMARK  213  A    between atoms: _502  and  _503
REMARK  214  A    between atoms: _502  and  _505
REMARK  215  A    between atoms: _505  and  _506
REMARK  216  A    between atoms: _506  and  _507
REMARK  217  A    between atoms: _507  and  _508
REMARK  218  A    between atoms: _517  and  _519
REMARK  219  A    between atoms: _519  and  _520
REMARK  220  A    between atoms: _519  and  _522
REMARK  221  A    between atoms: _522  and  _523
REMARK  222  A    between atoms: _523  and  _524
REMARK  223  A    between atoms: _524  and  _525
REMARK  224  A    between atoms: _525  and  _526
REMARK  225  A    between atoms: _530  and  _532
REMARK  226  A    between atoms: _532  and  _533
REMARK  227  A    between atoms: _532  and  _535
REMARK  228  A    between atoms: _535  and  _536
REMARK  229  A    between atoms: _541  and  _542
REMARK  230  A    between atoms: _544  and  _546
REMARK  231  A    between atoms: _546  and  _547
REMARK  232  A    between atoms: _549  and  _551
REMARK  233  A    between atoms: _551  and  _552
REMARK  234  A    between atoms: _551  and  _554
REMARK  235  A    between atoms: _554  and  _555
REMARK  236  A    between atoms: _558  and  _560
REMARK  237  A    between atoms: _560  and  _561
REMARK  238  A    between atoms: _560  and  _563
REMARK  239  A    between atoms: _563  and  _564
REMARK  240  A    between atoms: _569  and  _570
REMARK  241  A    between atoms: _572  and  _574
REMARK  242  A    between atoms: _574  and  _575
REMARK  243  A    between atoms: _574  and  _577
REMARK  244  A    between atoms: _577  and  _578
REMARK                            x       y       z     vdW  Elec       q    Type
REMARK                         _______ _______ _______ _____ _____    ______ ____
ROOT
ATOM      1  C   ILE A   1      19.945  72.167   7.854  0.00  0.00    +0.202 C 
ATOM      2  N   VAL A   2      19.133  71.787   8.845  0.00  0.00    -0.301 N 
ATOM      3  H   VAL A   2      18.912  70.775   8.937  0.00  0.00    +0.150 HD
ATOM      4  O   ILE A   1      20.251  73.351   7.643  0.00  0.00    -0.277 OA
ENDROOT
BRANCH   1   5
ATOM      5  CA  ILE A   1      20.497  71.042   6.972  0.00  0.00    +0.013 C 
BRANCH   5   6
ATOM      6  N   ILE A   1      20.132  71.262   5.558  0.00  0.00    +0.387 N 
ATOM      7  H1  ILE A   1      19.096  71.284   5.468  0.00  0.00    -0.089 HD
ATOM      8  H2  ILE A   1      20.528  72.168   5.236  0.00  0.00    -0.089 HD
ATOM      9  H3  ILE A   1      20.516  70.489   4.978  0.00  0.00    -0.089 HD
ENDBRANCH   5   6
BRANCH   5  10
ATOM     10  CB  ILE A   1      22.036  70.839   7.192  0.00  0.00    -0.011 C 
ATOM     11  CG2 ILE A   1      22.391  70.672   8.676  0.00  0.00    -0.002 C 
BRANCH  10  12
ATOM     12  CG1 ILE A   1      22.645  69.701   6.321  0.00  0.00    -0.002 C 
ATOM     13  CD1 ILE A   1      22.304  68.236   6.787  0.00  0.00    -0.000 C 
ENDBRANCH  10  12
ENDBRANCH   5  10
ENDBRANCH   1   5
BRANCH   2  14
ATOM     14  CA  VAL A   2      18.530  72.727   9.820  0.00  0.00    +0.137 C 
BRANCH  14  15
ATOM     15  CB  VAL A   2      17.073  72.315  10.190  0.00  0.00    +0.026 C 
ATOM     16  CG2 VAL A   2      16.478  73.323  11.183  0.00  0.00    +0.002 C 
ATOM     17  CG1 VAL A   2      16.190  72.199   8.941  0.00  0.00    +0.002 C 
ENDBRANCH  14  15
BRANCH  14  18
ATOM     18  C   VAL A   2      19.450  72.661  11.043  0.00  0.00    +0.227 C 
ATOM     19  O   VAL A   2      19.722  71.576  11.559  0.00  0.00    -0.286 OA
ENDBRANCH  14  18
ENDBRANCH   2  14
TORSDOF 7
REMARK  Name = ../refined-set-2016/2xbv/2xbv_pocket.pdb
REMARK  244 active torsions:
REMARK  status: ('A' for Active; 'I' for Inactive)
REMARK    1  A    between atoms: _1  and  _5
REMARK    2  A    between atoms: _5  and  _6
REMARK    3  A    between atoms: _5  and  _8
REMARK    4  A    between atoms: _8  and  _9
REMARK    5  A    between atoms: _12  and  _14
REMARK    6  A    between atoms: _14  and  _15
REMARK    7  A    between atoms: _14  and  _17
REMARK    8  A    between atoms: _20  and  _22
REMARK    9  A    between atoms: _22  and  _23
REMARK   10  A    between atoms: _22  and  _25
REMARK   11  A    between atoms: _25  and  _26
REMARK   12  A    between atoms: _31  and  _33
REMARK   13  A    between atoms: _33  and  _34
REMARK   14  A    between atoms: _33  and  _36
REMARK   15  A    between atoms: _36  and  _37
REMARK   16  A    between atoms: _37  and  _38
REMARK   17  A    between atoms: _43  and  _45
REMARK   18  A    between atoms: _45  and  _46
REMARK   19  A    between atoms: _45  and  _48
REMARK   20  A    between atoms: _48  and  _49
REMARK   21  A    between atoms: _55  and  _57
REMARK   22  A    between atoms: _57  and  _58
REMARK   23  A    between atoms: _57  and  _60
REMARK   24  A    between atoms: _60  and  _61
REMARK   25  A    between atoms: _64  and  _66
REMARK   26  A    between atoms: _66  and  _67
REMARK   27  A    between atoms: _66  and  _69
REMARK   28  A    between atoms: _69  and  _70
REMARK   29  A    between atoms: _70  and  _71
REMARK   30  A    between atoms: _71  and  _72
REMARK   31  A    between atoms: _72  and  _73
REMARK   32  A    between atoms: _77  and  _79
REMARK   33  A    between atoms: _79  and  _80
REMARK   34  A    between atoms: _79  and  _82
REMARK   35  A    between atoms: _82  and  _83
REMARK   36  A    between atoms: _83  and  _84
REMARK   37  A    between atoms: _87  and  _89
REMARK   38  A    between atoms: _89  and  _90
REMARK   39  A    between atoms: _89  and  _92
REMARK   40  A    between atoms: _92  and  _93
REMARK   41  A    between atoms: _96  and  _98
REMARK   42  A    between atoms: _98  and  _99
REMARK   43  A    between atoms: _98  and  _101
REMARK   44  A    between atoms: _101  and  _102
REMARK   45  A    between atoms: _107  and  _108
REMARK   46  A    between atoms: _110  and  _112
REMARK   47  A    between atoms: _112  and  _113
REMARK   48  A    between atoms: _112  and  _115
REMARK   49  A    between atoms: _115  and  _116
REMARK   50  A    between atoms: _119  and  _121
REMARK   51  A    between atoms: _121  and  _122
REMARK   52  A    between atoms: _121  and  _124
REMARK   53  A    between atoms: _124  and  _125
REMARK   54  A    between atoms: _128  and  _130
REMARK   55  A    between atoms: _130  and  _131
REMARK   56  A    between atoms: _130  and  _133
REMARK   57  A    between atoms: _136  and  _138
REMARK   58  A    between atoms: _138  and  _139
REMARK   59  A    between atoms: _141  and  _143
REMARK   60  A    between atoms: _143  and  _144
REMARK   61  A    between atoms: _143  and  _146
REMARK   62  A    between atoms: _146  and  _147
REMARK   63  A    between atoms: _147  and  _148
REMARK   64  A    between atoms: _148  and  _149
REMARK   65  A    between atoms: _158  and  _160
REMARK   66  A    between atoms: _160  and  _161
REMARK   67  A    between atoms: _160  and  _163
REMARK   68  A    between atoms: _163  and  _164
REMARK   69  A    between atoms: _167  and  _169
REMARK   70  A    between atoms: _169  and  _170
REMARK   71  A    between atoms: _169  and  _172
REMARK   72  A    between atoms: _172  and  _173
REMARK   73  A    between atoms: _178  and  _180
REMARK   74  A    between atoms: _180  and  _181
REMARK   75  A    between atoms: _180  and  _183
REMARK   76  A    between atoms: _183  and  _184
REMARK   77  A    between atoms: _184  and  _185
REMARK   78  A    between atoms: _188  and  _190
REMARK   79  A    between atoms: _190  and  _191
REMARK   80  A    between atoms: _190  and  _193
REMARK   81  A    between atoms: _193  and  _194
REMARK   82  A    between atoms: _194  and  _195
REMARK   83  A    between atoms: _195  and  _196
REMARK   84  A    between atoms: _196  and  _197
REMARK   85  A    between atoms: _201  and  _203
REMARK   86  A    between atoms: _203  and  _204
REMARK   87  A    between atoms: _206  and  _208
REMARK   88  A    between atoms: _208  and  _209
REMARK   89  A    between atoms: _208  and  _211
REMARK   90  A    between atoms: _212  and  _213
REMARK   91  A    between atoms: _216  and  _218
REMARK   92  A    between atoms: _218  and  _219
REMARK   93  A    between atoms: _218  and  _221
REMARK   94  A    between atoms: _221  and  _222
REMARK   95  A    between atoms: _222  and  _223
REMARK   96  A    between atoms: _228  and  _230
REMARK   97  A    between atoms: _230  and  _231
REMARK   98  A    between atoms: _230  and  _233
REMARK   99  A    between atoms: _233  and  _234
REMARK  100  A    between atoms: _237  and  _239
REMARK  101  A    between atoms: _239  and  _240
REMARK  102  A    between atoms: _239  and  _242
REMARK  103  A    between atoms: _245  and  _247
REMARK  104  A    between atoms: _247  and  _248
REMARK  105  A    between atoms: _247  and  _250
REMARK  106  A    between atoms: _250  and  _251
REMARK  107  A    between atoms: _253  and  _255
REMARK  108  A    between atoms: _255  and  _256
REMARK  109  A    between atoms: _255  and  _258
REMARK  110  A    between atoms: _258  and  _259
REMARK  111  A    between atoms: _261  and  _263
REMARK  112  A    between atoms: _263  and  _264
REMARK  113  A    between atoms: _263  and  _266
REMARK  114  A    between atoms: _266  and  _267
REMARK  115  A    between atoms: _273  and  _275
REMARK  116  A    between atoms: _275  and  _276
REMARK  117  A    between atoms: _275  and  _278
REMARK  118  A    between atoms: _278  and  _279
REMARK  119  A    between atoms: _282  and  _284
REMARK  120  A    between atoms: _284  and  _285
REMARK  121  A    between atoms: _284  and  _287
REMARK  122  A    between atoms: _287  and  _288
REMARK  123  A    between atoms: _291  and  _293
REMARK  124  A    between atoms: _293  and  _294
REMARK  125  A    between atoms: _293  and  _296
REMARK  126  A    between atoms: _296  and  _297
REMARK  127  A    between atoms: _300  and  _302
REMARK  128  A    between atoms: _302  and  _303
REMARK  129  A    between atoms: _302  and  _305
REMARK  130  A    between atoms: _305  and  _306
REMARK  131  A    between atoms: _306  and  _307
REMARK  132  A    between atoms: _309  and  _311
REMARK  133  A    between atoms: _311  and  _312
REMARK  134  A    between atoms: _311  and  _314
REMARK  135  A    between atoms: _314  and  _315
REMARK  136  A    between atoms: _321  and  _323
REMARK  137  A    between atoms: _323  and  _324
REMARK  138  A    between atoms: _323  and  _326
REMARK  139  A    between atoms: _328  and  _330
REMARK  140  A    between atoms: _330  and  _331
REMARK  141  A    between atoms: _334  and  _336
REMARK  142  A    between atoms: _336  and  _337
REMARK  143  A    between atoms: _339  and  _341
REMARK  144  A    between atoms: _341  and  _342
REMARK  145  A    between atoms: _341  and  _344
REMARK  146  A    between atoms: _344  and  _345
REMARK  147  A    between atoms: _345  and  _346
REMARK  148  A    between atoms: _349  and  _351
REMARK  149  A    between atoms: _351  and  _352
REMARK  150  A    between atoms: _351  and  _354
REMARK  151  A    between atoms: _354  and  _355
REMARK  152  A    between atoms: _358  and  _360
REMARK  153  A    between atoms: _360  and  _361
REMARK  154  A    between atoms: _364  and  _366
REMARK  155  A    between atoms: _366  and  _367
REMARK  156  A    between atoms: _366  and  _369
REMARK  157  A    between atoms: _369  and  _370
REMARK  158  A    between atoms: _370  and  _493
REMARK  159  A    between atoms: _371  and  _373
REMARK  160  A    between atoms: _373  and  _374
REMARK  161  A    between atoms: _373  and  _376
REMARK  162  A    between atoms: _376  and  _377
REMARK  163  A    between atoms: _377  and  _378
REMARK  164  A    between atoms: _383  and  _385
REMARK  165  A    between atoms: _385  and  _386
REMARK  166  A    between atoms: _388  and  _390
REMARK  167  A    between atoms: _390  and  _391
REMARK  168  A    between atoms: _390  and  _393
REMARK  169  A    between atoms: _393  and  _394
REMARK  170  A    between atoms: _397  and  _399
REMARK  171  A    between atoms: _399  and  _400
REMARK  172  A    between atoms: _399  and  _402
REMARK  173  A    between atoms: _402  and  _403
REMARK  174  A    between atoms: _405  and  _407
REMARK  175  A    between atoms: _407  and  _408
REMARK  176  A    between atoms: _410  and  _412
REMARK  177  A    between atoms: _412  and  _413
REMARK  178  A    between atoms: _415  and  _417
REMARK  179  A    between atoms: _417  and  _418
REMARK  180  A    between atoms: _417  and  _420
REMARK  181  A    between atoms: _420  and  _421
REMARK  182  A    between atoms: _426  and  _428
REMARK  183  A    between atoms: _428  and  _429
REMARK  184  A    between atoms: _428  and  _431
REMARK  185  A    between atoms: _431  and  _432
REMARK  186  A    between atoms: _435  and  _437
REMARK  187  A    between atoms: _437  and  _438
REMARK  188  A    between atoms: _437  and  _440
REMARK  189  A    between atoms: _443  and  _445
REMARK  190  A    between atoms: _445  and  _446
REMARK  191  A    between atoms: _445  and  _448
REMARK  192  A    between atoms: _448  and  _449
REMARK  193  A    between atoms: _451  and  _453
REMARK  194  A    between atoms: _453  and  _454
REMARK  195  A    between atoms: _453  and  _456
REMARK  196  A    between atoms: _456  and  _457
REMARK  197  A    between atoms: _467  and  _469
REMARK  198  A    between atoms: _469  and  _470
REMARK  199  A    between atoms: _472  and  _474
REMARK  200  A    between atoms: _474  and  _475
REMARK  201  A    between atoms: _474  and  _477
REMARK  202  A    between atoms: _477  and  _478
REMARK  203  A    between atoms: _478  and  _479
REMARK  204  A    between atoms: _482  and  _484
REMARK  205  A    between atoms: _484  and  _485
REMARK  206  A    between atoms: _487  and  _489
REMARK  207  A    between atoms: _489  and  _490
REMARK  208  A    between atoms: _489  and  _492
REMARK  209  A    between atoms: _492  and  _493
REMARK  210  A    between atoms: _494  and  _496
REMARK  211  A    between atoms: _496  and  _497
REMARK  212  A    between atoms: _500  and  _502
REMARK  213  A    between atoms: _502  and  _503
REMARK  214  A    between atoms: _502  and  _505
REMARK  215  A    between atoms: _505  and  _506
REMARK  216  A    between atoms: _506  and  _507
REMARK  217  A    between atoms: _507  and  _508
REMARK  218  A    between atoms: _517  and  _519
REMARK  219  A    between atoms: _519  and  _520
REMARK  220  A    between atoms: _519  and  _522
REMARK  221  A    between atoms: _522  and  _523
REMARK  222  A    between atoms: _523  and  _524
REMARK  223  A    between atoms: _524  and  _525
REMARK  224  A    between atoms: _525  and  _526
REMARK  225  A    between atoms: _530  and  _532
REMARK  226  A    between atoms: _532  and  _533
REMARK  227  A    between atoms: _532  and  _535
REMARK  228  A    between atoms: _535  and  _536
REMARK  229  A    between atoms: _541  and  _542
REMARK  230  A    between atoms: _544  and  _546
REMARK  231  A    between atoms: _546  and  _547
REMARK  232  A    between atoms: _549  and  _551
REMARK  233  A    between atoms: _551  and  _552
REMARK  234  A    between atoms: _551  and  _554
REMARK  235  A    between atoms: _554  and  _555
REMARK  236  A    between atoms: _558  and  _560
REMARK  237  A    between atoms: _560  and  _561
REMARK  238  A    between atoms: _560  and  _563
REMARK  239  A    between atoms: _563  and  _564
REMARK  240  A    between atoms: _569  and  _570
REMARK  241  A    between atoms: _572  and  _574
REMARK  242  A    between atoms: _574  and  _575
REMARK  243  A    between atoms: _574  and  _577
REMARK  244  A    between atoms: _577  and  _578
REMARK                            x       y       z     vdW  Elec       q    Type
REMARK                         _______ _______ _______ _____ _____    ______ ____
ROOT
ATOM      1  CB  HIS A   1      12.723  59.295  -3.554  0.00  0.00    +0.072 C 
ENDROOT
BRANCH   1   2
ATOM      2  CG  HIS A   1      13.432  60.311  -2.701  0.00  0.00    +0.082 A 
ATOM      3  ND1 HIS A   1      14.188  59.926  -1.609  0.00  0.00    -0.227 NA
ATOM      4  CE1 HIS A   1      14.601  61.049  -1.044  0.00  0.00    +0.199 A 
ATOM      5  NE2 HIS A   1      14.177  62.128  -1.722  0.00  0.00    -0.221 NA
ATOM      6  CD2 HIS A   1      13.438  61.668  -2.782  0.00  0.00    +0.115 A 
ENDBRANCH   1   2
BRANCH   1   7
ATOM      7  CA  HIS A   1      13.444  58.930  -4.851  0.00  0.00    +0.139 C 
BRANCH   7   8
ATOM      8  N   HIS A   1      14.505  57.912  -4.662  0.00  0.00    -0.239 NA
ATOM      9  H   HIS A   1      14.817  57.645  -3.706  0.00  0.00    +0.142 HD
ENDBRANCH   7   8
BRANCH   7  10
ATOM     10  C   HIS A   1      13.950  60.183  -5.589  0.00  0.00    +0.224 C 
ATOM     11  O   HIS A   1      13.156  60.911  -6.199  0.00  0.00    -0.287 OA
ENDBRANCH   7  10
ENDBRANCH   1   7
TORSDOF 4
REMARK  Name = ../refined-set-2016/2xbv/2xbv_pocket.pdb
REMARK  244 active torsions:
REMARK  status: ('A' for Active; 'I' for Inactive)
REMARK    1  A    between atoms: _1  and  _5
REMARK    2  A    between atoms: _5  and  _6
REMARK    3  A    between atoms: _5  and  _8
REMARK    4  A    between atoms: _8  and  _9
REMARK    5  A    between atoms: _12  and  _14
REMARK    6  A    between atoms: _14  and  _15
REMARK    7  A    between atoms: _14  and  _17
REMARK    8  A    between atoms: _20  and  _22
REMARK    9  A    between atoms: _22  and  _23
REMARK   10  A    between atoms: _22  and  _25
REMARK   11  A    between atoms: _25  and  _26
REMARK   12  A    between atoms: _31  and  _33
REMARK   13  A    between atoms: _33  and  _34
REMARK   14  A    between atoms: _33  and  _36
REMARK   15  A    between atoms: _36  and  _37
REMARK   16  A    between atoms: _37  and  _38
REMARK   17  A    between atoms: _43  and  _45
REMARK   18  A    between atoms: _45  and  _46
REMARK   19  A    between atoms: _45  and  _48
REMARK   20  A    between atoms: _48  and  _49
REMARK   21  A    between atoms: _55  and  _57
REMARK   22  A    between atoms: _57  and  _58
REMARK   23  A    between atoms: _57  and  _60
REMARK   24  A    between atoms: _60  and  _61
REMARK   25  A    between atoms: _64  and  _66
REMARK   26  A    between atoms: _66  and  _67
REMARK   27  A    between atoms: _66  and  _69
REMARK   28  A    between atoms: _69  and  _70
REMARK   29  A    between atoms: _70  and  _71
REMARK   30  A    between atoms: _71  and  _72
REMARK   31  A    between atoms: _72  and  _73
REMARK   32  A    between atoms: _77  and  _79
REMARK   33  A    between atoms: _79  and  _80
REMARK   34  A    between atoms: _79  and  _82
REMARK   35  A    between atoms: _82  and  _83
REMARK   36  A    between atoms: _83  and  _84
REMARK   37  A    between atoms: _87  and  _89
REMARK   38  A    between atoms: _89  and  _90
REMARK   39  A    between atoms: _89  and  _92
REMARK   40  A    between atoms: _92  and  _93
REMARK   41  A    between atoms: _96  and  _98
REMARK   42  A    between atoms: _98  and  _99
REMARK   43  A    between atoms: _98  and  _101
REMARK   44  A    between atoms: _101  and  _102
REMARK   45  A    between atoms: _107  and  _108
REMARK   46  A    between atoms: _110  and  _112
REMARK   47  A    between atoms: _112  and  _113
REMARK   48  A    between atoms: _112  and  _115
REMARK   49  A    between atoms: _115  and  _116
REMARK   50  A    between atoms: _119  and  _121
REMARK   51  A    between atoms: _121  and  _122
REMARK   52  A    between atoms: _121  and  _124
REMARK   53  A    between atoms: _124  and  _125
REMARK   54  A    between atoms: _128  and  _130
REMARK   55  A    between atoms: _130  and  _131
REMARK   56  A    between atoms: _130  and  _133
REMARK   57  A    between atoms: _136  and  _138
REMARK   58  A    between atoms: _138  and  _139
REMARK   59  A    between atoms: _141  and  _143
REMARK   60  A    between atoms: _143  and  _144
REMARK   61  A    between atoms: _143  and  _146
REMARK   62  A    between atoms: _146  and  _147
REMARK   63  A    between atoms: _147  and  _148
REMARK   64  A    between atoms: _148  and  _149
REMARK   65  A    between atoms: _158  and  _160
REMARK   66  A    between atoms: _160  and  _161
REMARK   67  A    between atoms: _160  and  _163
REMARK   68  A    between atoms: _163  and  _164
REMARK   69  A    between atoms: _167  and  _169
REMARK   70  A    between atoms: _169  and  _170
REMARK   71  A    between atoms: _169  and  _172
REMARK   72  A    between atoms: _172  and  _173
REMARK   73  A    between atoms: _178  and  _180
REMARK   74  A    between atoms: _180  and  _181
REMARK   75  A    between atoms: _180  and  _183
REMARK   76  A    between atoms: _183  and  _184
REMARK   77  A    between atoms: _184  and  _185
REMARK   78  A    between atoms: _188  and  _190
REMARK   79  A    between atoms: _190  and  _191
REMARK   80  A    between atoms: _190  and  _193
REMARK   81  A    between atoms: _193  and  _194
REMARK   82  A    between atoms: _194  and  _195
REMARK   83  A    between atoms: _195  and  _196
REMARK   84  A    between atoms: _196  and  _197
REMARK   85  A    between atoms: _201  and  _203
REMARK   86  A    between atoms: _203  and  _204
REMARK   87  A    between atoms: _206  and  _208
REMARK   88  A    between atoms: _208  and  _209
REMARK   89  A    between atoms: _208  and  _211
REMARK   90  A    between atoms: _212  and  _213
REMARK   91  A    between atoms: _216  and  _218
REMARK   92  A    between atoms: _218  and  _219
REMARK   93  A    between atoms: _218  and  _221
REMARK   94  A    between atoms: _221  and  _222
REMARK   95  A    between atoms: _222  and  _223
REMARK   96  A    between atoms: _228  and  _230
REMARK   97  A    between atoms: _230  and  _231
REMARK   98  A    between atoms: _230  and  _233
REMARK   99  A    between atoms: _233  and  _234
REMARK  100  A    between atoms: _237  and  _239
REMARK  101  A    between atoms: _239  and  _240
REMARK  102  A    between atoms: _239  and  _242
REMARK  103  A    between atoms: _245  and  _247
REMARK  104  A    between atoms: _247  and  _248
REMARK  105  A    between atoms: _247  and  _250
REMARK  106  A    between atoms: _250  and  _251
REMARK  107  A    between atoms: _253  and  _255
REMARK  108  A    between atoms: _255  and  _256
REMARK  109  A    between atoms: _255  and  _258
REMARK  110  A    between atoms: _258  and  _259
REMARK  111  A    between atoms: _261  and  _263
REMARK  112  A    between atoms: _263  and  _264
REMARK  113  A    between atoms: _263  and  _266
REMARK  114  A    between atoms: _266  and  _267
REMARK  115  A    between atoms: _273  and  _275
REMARK  116  A    between atoms: _275  and  _276
REMARK  117  A    between atoms: _275  and  _278
REMARK  118  A    between atoms: _278  and  _279
REMARK  119  A    between atoms: _282  and  _284
REMARK  120  A    between atoms: _284  and  _285
REMARK  121  A    between atoms: _284  and  _287
REMARK  122  A    between atoms: _287  and  _288
REMARK  123  A    between atoms: _291  and  _293
REMARK  124  A    between atoms: _293  and  _294
REMARK  125  A    between atoms: _293  and  _296
REMARK  126  A    between atoms: _296  and  _297
REMARK  127  A    between atoms: _300  and  _302
REMARK  128  A    between atoms: _302  and  _303
REMARK  129  A    between atoms: _302  and  _305
REMARK  130  A    between atoms: _305  and  _306
REMARK  131  A    between atoms: _306  and  _307
REMARK  132  A    between atoms: _309  and  _311
REMARK  133  A    between atoms: _311  and  _312
REMARK  134  A    between atoms: _311  and  _314
REMARK  135  A    between atoms: _314  and  _315
REMARK  136  A    between atoms: _321  and  _323
REMARK  137  A    between atoms: _323  and  _324
REMARK  138  A    between atoms: _323  and  _326
REMARK  139  A    between atoms: _328  and  _330
REMARK  140  A    between atoms: _330  and  _331
REMARK  141  A    between atoms: _334  and  _336
REMARK  142  A    between atoms: _336  and  _337
REMARK  143  A    between atoms: _339  and  _341
REMARK  144  A    between atoms: _341  and  _342
REMARK  145  A    between atoms: _341  and  _344
REMARK  146  A    between atoms: _344  and  _345
REMARK  147  A    between atoms: _345  and  _346
REMARK  148  A    between atoms: _349  and  _351
REMARK  149  A    between atoms: _351  and  _352
REMARK  150  A    between atoms: _351  and  _354
REMARK  151  A    between atoms: _354  and  _355
REMARK  152  A    between atoms: _358  and  _360
REMARK  153  A    between atoms: _360  and  _361
REMARK  154  A    between atoms: _364  and  _366
REMARK  155  A    between atoms: _366  and  _367
REMARK  156  A    between atoms: _366  and  _369
REMARK  157  A    between atoms: _369  and  _370
REMARK  158  A    between atoms: _370  and  _493
REMARK  159  A    between atoms: _371  and  _373
REMARK  160  A    between atoms: _373  and  _374
REMARK  161  A    between atoms: _373  and  _376
REMARK  162  A    between atoms: _376  and  _377
REMARK  163  A    between atoms: _377  and  _378
REMARK  164  A    between atoms: _383  and  _385
REMARK  165  A    between atoms: _385  and  _386
REMARK  166  A    between atoms: _388  and  _390
REMARK  167  A    between atoms: _390  and  _391
REMARK  168  A    between atoms: _390  and  _393
REMARK  169  A    between atoms: _393  and  _394
REMARK  170  A    between atoms: _397  and  _399
REMARK  171  A    between atoms: _399  and  _400
REMARK  172  A    between atoms: _399  and  _402
REMARK  173  A    between atoms: _402  and  _403
REMARK  174  A    between atoms: _405  and  _407
REMARK  175  A    between atoms: _407  and  _408
REMARK  176  A    between atoms: _410  and  _412
REMARK  177  A    between atoms: _412  and  _413
REMARK  178  A    between atoms: _415  and  _417
REMARK  179  A    between atoms: _417  and  _418
REMARK  180  A    between atoms: _417  and  _420
REMARK  181  A    between atoms: _420  and  _421
REMARK  182  A    between atoms: _426  and  _428
REMARK  183  A    between atoms: _428  and  _429
REMARK  184  A    between atoms: _428  and  _431
REMARK  185  A    between atoms: _431  and  _432
REMARK  186  A    between atoms: _435  and  _437
REMARK  187  A    between atoms: _437  and  _438
REMARK  188  A    between atoms: _437  and  _440
REMARK  189  A    between atoms: _443  and  _445
REMARK  190  A    between atoms: _445  and  _446
REMARK  191  A    between atoms: _445  and  _448
REMARK  192  A    between atoms: _448  and  _449
REMARK  193  A    between atoms: _451  and  _453
REMARK  194  A    between atoms: _453  and  _454
REMARK  195  A    between atoms: _453  and  _456
REMARK  196  A    between atoms: _456  and  _457
REMARK  197  A    between atoms: _467  and  _469
REMARK  198  A    between atoms: _469  and  _470
REMARK  199  A    between atoms: _472  and  _474
REMARK  200  A    between atoms: _474  and  _475
REMARK  201  A    between atoms: _474  and  _477
REMARK  202  A    between atoms: _477  and  _478
REMARK  203  A    between atoms: _478  and  _479
REMARK  204  A    between atoms: _482  and  _484
REMARK  205  A    between atoms: _484  and  _485
REMARK  206  A    between atoms: _487  and  _489
REMARK  207  A    between atoms: _489  and  _490
REMARK  208  A    between atoms: _489  and  _492
REMARK  209  A    between atoms: _492  and  _493
REMARK  210  A    between atoms: _494  and  _496
REMARK  211  A    between atoms: _496  and  _497
REMARK  212  A    between atoms: _500  and  _502
REMARK  213  A    between atoms: _502  and  _503
REMARK  214  A    between atoms: _502  and  _505
REMARK  215  A    between atoms: _505  and  _506
REMARK  216  A    between atoms: _506  and  _507
REMARK  217  A    between atoms: _507  and  _508
REMARK  218  A    between atoms: _517  and  _519
REMARK  219  A    between atoms: _519  and  _520
REMARK  220  A    between atoms: _519  and  _522
REMARK  221  A    between atoms: _522  and  _523
REMARK  222  A    between atoms: _523  and  _524
REMARK  223  A    between atoms: _524  and  _525
REMARK  224  A    between atoms: _525  and  _526
REMARK  225  A    between atoms: _530  and  _532
REMARK  226  A    between atoms: _532  and  _533
REMARK  227  A    between atoms: _532  and  _535
REMARK  228  A    between atoms: _535  and  _536
REMARK  229  A    between atoms: _541  and  _542
REMARK  230  A    between atoms: _544  and  _546
REMARK  231  A    between atoms: _546  and  _547
REMARK  232  A    between atoms: _549  and  _551
REMARK  233  A    between atoms: _551  and  _552
REMARK  234  A    between atoms: _551  and  _554
REMARK  235  A    between atoms: _554  and  _555
REMARK  236  A    between atoms: _558  and  _560
REMARK  237  A    between atoms: _560  and  _561
REMARK  238  A    between atoms: _560  and  _563
REMARK  239  A    between atoms: _563  and  _564
REMARK  240  A    between atoms: _569  and  _570
REMARK  241  A    between atoms: _572  and  _574
REMARK  242  A    between atoms: _574  and  _575
REMARK  243  A    between atoms: _574  and  _577
REMARK  244  A    between atoms: _577  and  _578
REMARK                            x       y       z     vdW  Elec       q    Type
REMARK                         _______ _______ _______ _____ _____    ______ ____
ROOT
ATOM      1  CB  GLN A   1      13.559  65.471  -8.336  0.00  0.00    +0.035 C 
ENDROOT
BRANCH   1   2
ATOM      2  CA  GLN A   1      12.797  64.933  -9.553  0.00  0.00    +0.134 C 
BRANCH   2   3
ATOM      3  N   GLN A   1      12.817  63.476  -9.550  0.00  0.00    -0.239 NA
ATOM      4  H   GLN A   1      13.573  62.993  -9.024  0.00  0.00    +0.142 HD
ENDBRANCH   2   3
BRANCH   2   5
ATOM      5  C   GLN A   1      13.196  65.628 -10.851  0.00  0.00    +0.224 C 
ATOM      6  O   GLN A   1      12.574  66.636 -11.220  0.00  0.00    -0.287 OA
ENDBRANCH   2   5
ENDBRANCH   1   2
BRANCH   1   7
ATOM      7  CG  GLN A   1      12.708  65.326  -7.076  0.00  0.00    +0.087 C 
BRANCH   7   8
ATOM      8  CD  GLN A   1      13.454  65.501  -5.793  0.00  0.00    +0.219 C 
ATOM      9  OE1 GLN A   1      13.465  64.615  -4.938  0.00  0.00    -0.275 OA
ATOM     10  NE2 GLN A   1      14.008  66.673  -5.582  0.00  0.00    -0.329 N 
ATOM     11 HE21 GLN A   1      14.472  66.873  -4.673  0.00  0.00    +0.145 HD
ATOM     12 HE22 GLN A   1      13.982  67.401  -6.324  0.00  0.00    +0.145 HD
ENDBRANCH   7   8
ENDBRANCH   1   7
TORSDOF 5
REMARK  Name = ../refined-set-2016/2xbv/2xbv_pocket.pdb
REMARK  244 active torsions:
REMARK  status: ('A' for Active; 'I' for Inactive)
REMARK    1  A    between atoms: _1  and  _5
REMARK    2  A    between atoms: _5  and  _6
REMARK    3  A    between atoms: _5  and  _8
REMARK    4  A    between atoms: _8  and  _9
REMARK    5  A    between atoms: _12  and  _14
REMARK    6  A    between atoms: _14  and  _15
REMARK    7  A    between atoms: _14  and  _17
REMARK    8  A    between atoms: _20  and  _22
REMARK    9  A    between atoms: _22  and  _23
REMARK   10  A    between atoms: _22  and  _25
REMARK   11  A    between atoms: _25  and  _26
REMARK   12  A    between atoms: _31  and  _33
REMARK   13  A    between atoms: _33  and  _34
REMARK   14  A    between atoms: _33  and  _36
REMARK   15  A    between atoms: _36  and  _37
REMARK   16  A    between atoms: _37  and  _38
REMARK   17  A    between atoms: _43  and  _45
REMARK   18  A    between atoms: _45  and  _46
REMARK   19  A    between atoms: _45  and  _48
REMARK   20  A    between atoms: _48  and  _49
REMARK   21  A    between atoms: _55  and  _57
REMARK   22  A    between atoms: _57  and  _58
REMARK   23  A    between atoms: _57  and  _60
REMARK   24  A    between atoms: _60  and  _61
REMARK   25  A    between atoms: _64  and  _66
REMARK   26  A    between atoms: _66  and  _67
REMARK   27  A    between atoms: _66  and  _69
REMARK   28  A    between atoms: _69  and  _70
REMARK   29  A    between atoms: _70  and  _71
REMARK   30  A    between atoms: _71  and  _72
REMARK   31  A    between atoms: _72  and  _73
REMARK   32  A    between atoms: _77  and  _79
REMARK   33  A    between atoms: _79  and  _80
REMARK   34  A    between atoms: _79  and  _82
REMARK   35  A    between atoms: _82  and  _83
REMARK   36  A    between atoms: _83  and  _84
REMARK   37  A    between atoms: _87  and  _89
REMARK   38  A    between atoms: _89  and  _90
REMARK   39  A    between atoms: _89  and  _92
REMARK   40  A    between atoms: _92  and  _93
REMARK   41  A    between atoms: _96  and  _98
REMARK   42  A    between atoms: _98  and  _99
REMARK   43  A    between atoms: _98  and  _101
REMARK   44  A    between atoms: _101  and  _102
REMARK   45  A    between atoms: _107  and  _108
REMARK   46  A    between atoms: _110  and  _112
REMARK   47  A    between atoms: _112  and  _113
REMARK   48  A    between atoms: _112  and  _115
REMARK   49  A    between atoms: _115  and  _116
REMARK   50  A    between atoms: _119  and  _121
REMARK   51  A    between atoms: _121  and  _122
REMARK   52  A    between atoms: _121  and  _124
REMARK   53  A    between atoms: _124  and  _125
REMARK   54  A    between atoms: _128  and  _130
REMARK   55  A    between atoms: _130  and  _131
REMARK   56  A    between atoms: _130  and  _133
REMARK   57  A    between atoms: _136  and  _138
REMARK   58  A    between atoms: _138  and  _139
REMARK   59  A    between atoms: _141  and  _143
REMARK   60  A    between atoms: _143  and  _144
REMARK   61  A    between atoms: _143  and  _146
REMARK   62  A    between atoms: _146  and  _147
REMARK   63  A    between atoms: _147  and  _148
REMARK   64  A    between atoms: _148  and  _149
REMARK   65  A    between atoms: _158  and  _160
REMARK   66  A    between atoms: _160  and  _161
REMARK   67  A    between atoms: _160  and  _163
REMARK   68  A    between atoms: _163  and  _164
REMARK   69  A    between atoms: _167  and  _169
REMARK   70  A    between atoms: _169  and  _170
REMARK   71  A    between atoms: _169  and  _172
REMARK   72  A    between atoms: _172  and  _173
REMARK   73  A    between atoms: _178  and  _180
REMARK   74  A    between atoms: _180  and  _181
REMARK   75  A    between atoms: _180  and  _183
REMARK   76  A    between atoms: _183  and  _184
REMARK   77  A    between atoms: _184  and  _185
REMARK   78  A    between atoms: _188  and  _190
REMARK   79  A    between atoms: _190  and  _191
REMARK   80  A    between atoms: _190  and  _193
REMARK   81  A    between atoms: _193  and  _194
REMARK   82  A    between atoms: _194  and  _195
REMARK   83  A    between atoms: _195  and  _196
REMARK   84  A    between atoms: _196  and  _197
REMARK   85  A    between atoms: _201  and  _203
REMARK   86  A    between atoms: _203  and  _204
REMARK   87  A    between atoms: _206  and  _208
REMARK   88  A    between atoms: _208  and  _209
REMARK   89  A    between atoms: _208  and  _211
REMARK   90  A    between atoms: _212  and  _213
REMARK   91  A    between atoms: _216  and  _218
REMARK   92  A    between atoms: _218  and  _219
REMARK   93  A    between atoms: _218  and  _221
REMARK   94  A    between atoms: _221  and  _222
REMARK   95  A    between atoms: _222  and  _223
REMARK   96  A    between atoms: _228  and  _230
REMARK   97  A    between atoms: _230  and  _231
REMARK   98  A    between atoms: _230  and  _233
REMARK   99  A    between atoms: _233  and  _234
REMARK  100  A    between atoms: _237  and  _239
REMARK  101  A    between atoms: _239  and  _240
REMARK  102  A    between atoms: _239  and  _242
REMARK  103  A    between atoms: _245  and  _247
REMARK  104  A    between atoms: _247  and  _248
REMARK  105  A    between atoms: _247  and  _250
REMARK  106  A    between atoms: _250  and  _251
REMARK  107  A    between atoms: _253  and  _255
REMARK  108  A    between atoms: _255  and  _256
REMARK  109  A    between atoms: _255  and  _258
REMARK  110  A    between atoms: _258  and  _259
REMARK  111  A    between atoms: _261  and  _263
REMARK  112  A    between atoms: _263  and  _264
REMARK  113  A    between atoms: _263  and  _266
REMARK  114  A    between atoms: _266  and  _267
REMARK  115  A    between atoms: _273  and  _275
REMARK  116  A    between atoms: _275  and  _276
REMARK  117  A    between atoms: _275  and  _278
REMARK  118  A    between atoms: _278  and  _279
REMARK  119  A    between atoms: _282  and  _284
REMARK  120  A    between atoms: _284  and  _285
REMARK  121  A    between atoms: _284  and  _287
REMARK  122  A    between atoms: _287  and  _288
REMARK  123  A    between atoms: _291  and  _293
REMARK  124  A    between atoms: _293  and  _294
REMARK  125  A    between atoms: _293  and  _296
REMARK  126  A    between atoms: _296  and  _297
REMARK  127  A    between atoms: _300  and  _302
REMARK  128  A    between atoms: _302  and  _303
REMARK  129  A    between atoms: _302  and  _305
REMARK  130  A    between atoms: _305  and  _306
REMARK  131  A    between atoms: _306  and  _307
REMARK  132  A    between atoms: _309  and  _311
REMARK  133  A    between atoms: _311  and  _312
REMARK  134  A    between atoms: _311  and  _314
REMARK  135  A    between atoms: _314  and  _315
REMARK  136  A    between atoms: _321  and  _323
REMARK  137  A    between atoms: _323  and  _324
REMARK  138  A    between atoms: _323  and  _326
REMARK  139  A    between atoms: _328  and  _330
REMARK  140  A    between atoms: _330  and  _331
REMARK  141  A    between atoms: _334  and  _336
REMARK  142  A    between atoms: _336  and  _337
REMARK  143  A    between atoms: _339  and  _341
REMARK  144  A    between atoms: _341  and  _342
REMARK  145  A    between atoms: _341  and  _344
REMARK  146  A    between atoms: _344  and  _345
REMARK  147  A    between atoms: _345  and  _346
REMARK  148  A    between atoms: _349  and  _351
REMARK  149  A    between atoms: _351  and  _352
REMARK  150  A    between atoms: _351  and  _354
REMARK  151  A    between atoms: _354  and  _355
REMARK  152  A    between atoms: _358  and  _360
REMARK  153  A    between atoms: _360  and  _361
REMARK  154  A    between atoms: _364  and  _366
REMARK  155  A    between atoms: _366  and  _367
REMARK  156  A    between atoms: _366  and  _369
REMARK  157  A    between atoms: _369  and  _370
REMARK  158  A    between atoms: _370  and  _493
REMARK  159  A    between atoms: _371  and  _373
REMARK  160  A    between atoms: _373  and  _374
REMARK  161  A    between atoms: _373  and  _376
REMARK  162  A    between atoms: _376  and  _377
REMARK  163  A    between atoms: _377  and  _378
REMARK  164  A    between atoms: _383  and  _385
REMARK  165  A    between atoms: _385  and  _386
REMARK  166  A    between atoms: _388  and  _390
REMARK  167  A    between atoms: _390  and  _391
REMARK  168  A    between atoms: _390  and  _393
REMARK  169  A    between atoms: _393  and  _394
REMARK  170  A    between atoms: _397  and  _399
REMARK  171  A    between atoms: _399  and  _400
REMARK  172  A    between atoms: _399  and  _402
REMARK  173  A    between atoms: _402  and  _403
REMARK  174  A    between atoms: _405  and  _407
REMARK  175  A    between atoms: _407  and  _408
REMARK  176  A    between atoms: _410  and  _412
REMARK  177  A    between atoms: _412  and  _413
REMARK  178  A    between atoms: _415  and  _417
REMARK  179  A    between atoms: _417  and  _418
REMARK  180  A    between atoms: _417  and  _420
REMARK  181  A    between atoms: _420  and  _421
REMARK  182  A    between atoms: _426  and  _428
REMARK  183  A    between atoms: _428  and  _429
REMARK  184  A    between atoms: _428  and  _431
REMARK  185  A    between atoms: _431  and  _432
REMARK  186  A    between atoms: _435  and  _437
REMARK  187  A    between atoms: _437  and  _438
REMARK  188  A    between atoms: _437  and  _440
REMARK  189  A    between atoms: _443  and  _445
REMARK  190  A    between atoms: _445  and  _446
REMARK  191  A    between atoms: _445  and  _448
REMARK  192  A    between atoms: _448  and  _449
REMARK  193  A    between atoms: _451  and  _453
REMARK  194  A    between atoms: _453  and  _454
REMARK  195  A    between atoms: _453  and  _456
REMARK  196  A    between atoms: _456  and  _457
REMARK  197  A    between atoms: _467  and  _469
REMARK  198  A    between atoms: _469  and  _470
REMARK  199  A    between atoms: _472  and  _474
REMARK  200  A    between atoms: _474  and  _475
REMARK  201  A    between atoms: _474  and  _477
REMARK  202  A    between atoms: _477  and  _478
REMARK  203  A    between atoms: _478  and  _479
REMARK  204  A    between atoms: _482  and  _484
REMARK  205  A    between atoms: _484  and  _485
REMARK  206  A    between atoms: _487  and  _489
REMARK  207  A    between atoms: _489  and  _490
REMARK  208  A    between atoms: _489  and  _492
REMARK  209  A    between atoms: _492  and  _493
REMARK  210  A    between atoms: _494  and  _496
REMARK  211  A    between atoms: _496  and  _497
REMARK  212  A    between atoms: _500  and  _502
REMARK  213  A    between atoms: _502  and  _503
REMARK  214  A    between atoms: _502  and  _505
REMARK  215  A    between atoms: _505  and  _506
REMARK  216  A    between atoms: _506  and  _507
REMARK  217  A    between atoms: _507  and  _508
REMARK  218  A    between atoms: _517  and  _519
REMARK  219  A    between atoms: _519  and  _520
REMARK  220  A    between atoms: _519  and  _522
REMARK  221  A    between atoms: _522  and  _523
REMARK  222  A    between atoms: _523  and  _524
REMARK  223  A    between atoms: _524  and  _525
REMARK  224  A    between atoms: _525  and  _526
REMARK  225  A    between atoms: _530  and  _532
REMARK  226  A    between atoms: _532  and  _533
REMARK  227  A    between atoms: _532  and  _535
REMARK  228  A    between atoms: _535  and  _536
REMARK  229  A    between atoms: _541  and  _542
REMARK  230  A    between atoms: _544  and  _546
REMARK  231  A    between atoms: _546  and  _547
REMARK  232  A    between atoms: _549  and  _551
REMARK  233  A    between atoms: _551  and  _552
REMARK  234  A    between atoms: _551  and  _554
REMARK  235  A    between atoms: _554  and  _555
REMARK  236  A    between atoms: _558  and  _560
REMARK  237  A    between atoms: _560  and  _561
REMARK  238  A    between atoms: _560  and  _563
REMARK  239  A    between atoms: _563  and  _564
REMARK  240  A    between atoms: _569  and  _570
REMARK  241  A    between atoms: _572  and  _574
REMARK  242  A    between atoms: _574  and  _575
REMARK  243  A    between atoms: _574  and  _577
REMARK  244  A    between atoms: _577  and  _578
REMARK                            x       y       z     vdW  Elec       q    Type
REMARK                         _______ _______ _______ _____ _____    ______ ____
ROOT
ATOM      1  CA  GLU A   4       3.965  54.155  -1.594  0.00  0.00    +0.149 C 
ENDROOT
BRANCH   1   4
ATOM      2  C   LYS A   3       5.698  55.691  -2.390  0.00  0.00    +0.241 C 
ATOM      3  O   LYS A   3       5.489  56.442  -1.451  0.00  0.00    -0.273 OA
ATOM      4  N   GLU A   4       5.006  54.536  -2.559  0.00  0.00    -0.297 N 
ATOM      5  H   GLU A   4       5.212  53.920  -3.371  0.00  0.00    +0.150 HD
BRANCH   2   6
ATOM      6  CA  LYS A   3       6.825  56.017  -3.367  0.00  0.00    +0.149 C 
BRANCH   6   9
ATOM      7  C   THR A   2       7.898  53.816  -3.550  0.00  0.00    +0.243 C 
ATOM      8  O   THR A   2       8.189  53.776  -2.355  0.00  0.00    -0.273 OA
ATOM      9  N   LYS A   3       7.241  54.857  -4.126  0.00  0.00    -0.297 N 
ATOM     10  H   LYS A   3       7.031  54.819  -5.144  0.00  0.00    +0.150 HD
BRANCH   7  11
ATOM     11  CA  THR A   2       8.179  52.628  -4.414  0.00  0.00    +0.176 C 
BRANCH  11  13
ATOM     12  C   PHE A   1      10.290  51.560  -4.989  0.00  0.00    +0.239 C 
ATOM     13  N   THR A   2       9.511  52.110  -4.074  0.00  0.00    -0.295 N 
ATOM     14  H   THR A   2       9.848  52.178  -3.092  0.00  0.00    +0.150 HD
ATOM     15  O   PHE A   1       9.908  51.332  -6.149  0.00  0.00    -0.274 OA
BRANCH  12  16
ATOM     16  CA  PHE A   1      11.721  51.177  -4.505  0.00  0.00    +0.149 C 
BRANCH  16  17
ATOM     17  N   PHE A   1      12.111  49.847  -4.983  0.00  0.00    -0.238 NA
ATOM     18  H   PHE A   1      12.913  49.724  -5.634  0.00  0.00    +0.142 HD
ENDBRANCH  16  17
BRANCH  16  19
ATOM     19  CB  PHE A   1      12.713  52.299  -4.954  0.00  0.00    +0.053 C 
BRANCH  19  20
ATOM     20  CG  PHE A   1      12.168  53.655  -4.551  0.00  0.00    -0.020 A 
ATOM     21  CD2 PHE A   1      12.196  54.067  -3.220  0.00  0.00    -0.004 A 
ATOM     22  CE2 PHE A   1      11.662  55.315  -2.830  0.00  0.00    -0.000 A 
ATOM     23  CZ  PHE A   1      11.044  56.134  -3.767  0.00  0.00    -0.000 A 
ATOM     24  CE1 PHE A   1      10.946  55.706  -5.097  0.00  0.00    -0.000 A 
ATOM     25  CD1 PHE A   1      11.502  54.470  -5.486  0.00  0.00    -0.004 A 
ENDBRANCH  19  20
ENDBRANCH  16  19
ENDBRANCH  12  16
ENDBRANCH  11  13
BRANCH  11  26
ATOM     26  CB  THR A   2       7.049  51.590  -4.306  0.00  0.00    +0.137 C 
ATOM     27  CG2 THR A   2       7.024  50.883  -2.970  0.00  0.00    +0.034 C 
BRANCH  26  28
ATOM     28  OG1 THR A   2       5.805  52.296  -4.462  0.00  0.00    -0.382 OA
ATOM     29  HG1 THR A   2       5.053  51.655  -4.398  0.00  0.00    +0.210 HD
ENDBRANCH  26  28
ENDBRANCH  11  26
ENDBRANCH   7  11
ENDBRANCH   6   9
BRANCH   6  30
ATOM     30  CB  LYS A   3       6.427  57.188  -4.280  0.00  0.00    +0.029 C 
BRANCH  30  31
ATOM     31  CG  LYS A   3       7.619  57.966  -4.790  0.00  0.00    +0.000 C 
BRANCH  31  32
ATOM     32  CD  LYS A   3       7.145  59.296  -5.340  0.00  0.00    -0.024 C 
BRANCH  32  33
ATOM     33  CE  LYS A   3       8.324  60.130  -5.792  0.00  0.00    -0.086 C 
BRANCH  33  34
ATOM     34  NZ  LYS A   3       7.909  61.139  -6.803  0.00  0.00    +0.380 N 
ATOM     35  HZ1 LYS A   3       7.194  61.770  -6.388  0.00  0.00    -0.089 HD
ATOM     36  HZ2 LYS A   3       8.737  61.696  -7.095  0.00  0.00    -0.089 HD
ATOM     37  HZ3 LYS A   3       7.507  60.654  -7.630  0.00  0.00    -0.089 HD
ENDBRANCH  33  34
ENDBRANCH  32  33
ENDBRANCH  31  32
ENDBRANCH  30  31
ENDBRANCH   6  30
ENDBRANCH   2   6
ENDBRANCH   1   4
BRANCH   1  38
ATOM     38  C   GLU A   4       4.529  54.001  -0.169  0.00  0.00    +0.241 C 
ATOM     39  O   GLU A   4       3.916  54.468   0.788  0.00  0.00    -0.273 OA
ATOM     40  N   THR A   5       5.725  53.380  -0.034  0.00  0.00    -0.295 N 
ATOM     41  H   THR A   5       6.249  53.104  -0.889  0.00  0.00    +0.150 HD
BRANCH  40  42
ATOM     42  CA  THR A   5       6.307  53.083   1.284  0.00  0.00    +0.176 C 
BRANCH  42  43
ATOM     43  C   THR A   5       7.621  53.837   1.512  0.00  0.00    +0.243 C 
ATOM     44  O   THR A   5       8.091  53.904   2.648  0.00  0.00    -0.273 OA
ATOM     45  N   TYR A   6       8.250  54.315   0.427  0.00  0.00    -0.297 N 
ATOM     46  H   TYR A   6       7.755  54.270  -0.487  0.00  0.00    +0.150 HD
BRANCH  45  47
ATOM     47  CA  TYR A   6       9.599  54.898   0.458  0.00  0.00    +0.153 C 
BRANCH  47  48
ATOM     48  C   TYR A   6      10.648  53.832   0.900  0.00  0.00    +0.241 C 
ATOM     49  O   TYR A   6      11.809  54.164   1.210  0.00  0.00    -0.273 OA
ATOM     50  N   ASP A   7      10.256  52.535   0.836  0.00  0.00    -0.298 N 
ATOM     51  H   ASP A   7       9.291  52.298   0.529  0.00  0.00    +0.150 HD
BRANCH  50  52
ATOM     52  CA  ASP A   7      11.189  51.472   1.198  0.00  0.00    +0.148 C 
BRANCH  52  53
ATOM     53  C   ASP A   7      12.162  51.239   0.025  0.00  0.00    +0.227 C 
ATOM     54  O   ASP A   7      11.869  51.598  -1.110  0.00  0.00    -0.286 OA
ENDBRANCH  52  53
BRANCH  52  55
ATOM     55  CB  ASP A   7      10.404  50.158   1.465  0.00  0.00    +0.142 C 
BRANCH  55  56
ATOM     56  CG  ASP A   7      11.161  49.141   2.288  0.00  0.00    +0.367 C 
ATOM     57  OD2 ASP A   7      12.275  49.461   2.768  0.00  0.00    -0.246 OA
ATOM     58  OD1 ASP A   7      10.624  48.031   2.474  0.00  0.00    -0.246 OA
ENDBRANCH  55  56
ENDBRANCH  52  55
ENDBRANCH  50  52
ENDBRANCH  47  48
BRANCH  47  59
ATOM     59  CB  TYR A   6       9.674  56.185   1.278  0.00  0.00    +0.055 C 
BRANCH  59  60
ATOM     60  CG  TYR A   6       9.600  57.413   0.399  0.00  0.00    -0.020 A 
ATOM     61  CD2 TYR A   6      10.701  58.250   0.255  0.00  0.00    -0.001 A 
ATOM     62  CE2 TYR A   6      10.653  59.368  -0.577  0.00  0.00    +0.036 A 
ATOM     63  CZ  TYR A   6       9.504  59.648  -1.289  0.00  0.00    +0.134 A 
ATOM     64  CE1 TYR A   6       8.409  58.792  -1.225  0.00  0.00    +0.036 A 
ATOM     65  CD1 TYR A   6       8.454  57.691  -0.359  0.00  0.00    -0.001 A 
BRANCH  63  66
ATOM     66  OH  TYR A   6       9.520  60.751  -2.104  0.00  0.00    -0.506 OA
ATOM     67  HH  TYR A   6       8.643  60.840  -2.554  0.00  0.00    +0.292 HD
ENDBRANCH  63  66
ENDBRANCH  59  60
ENDBRANCH  47  59
ENDBRANCH  45  47
ENDBRANCH  42  43
BRANCH  42  68
ATOM     68  CB  THR A   5       6.648  51.570   1.343  0.00  0.00    +0.137 C 
ATOM     69  CG2 THR A   5       5.387  50.674   1.220  0.00  0.00    +0.034 C 
BRANCH  68  70
ATOM     70  OG1 THR A   5       7.552  51.257   0.296  0.00  0.00    -0.382 OA
ATOM     71  HG1 THR A   5       7.773  50.292   0.329  0.00  0.00    +0.210 HD
ENDBRANCH  68  70
ENDBRANCH  42  68
ENDBRANCH  40  42
ENDBRANCH   1  38
BRANCH   1  72
ATOM     72  CB  GLU A   4       3.342  52.826  -2.041  0.00  0.00    +0.041 C 
BRANCH  72  73
ATOM     73  CG  GLU A   4       2.084  52.411  -1.295  0.00  0.00    +0.116 C 
BRANCH  73  74
ATOM     74  CD  GLU A   4       1.649  50.978  -1.551  0.00  0.00    +0.365 C 
ATOM     75  OE2 GLU A   4       1.385  50.258  -0.562  0.00  0.00    -0.246 OA
ATOM     76  OE1 GLU A   4       1.557  50.577  -2.734  0.00  0.00    -0.246 OA
ENDBRANCH  73  74
ENDBRANCH  72  73
ENDBRANCH   1  72
TORSDOF 33
REMARK  Name = ../refined-set-2016/2xbv/2xbv_pocket.pdb
REMARK  244 active torsions:
REMARK  status: ('A' for Active; 'I' for Inactive)
REMARK    1  A    between atoms: _1  and  _5
REMARK    2  A    between atoms: _5  and  _6
REMARK    3  A    between atoms: _5  and  _8
REMARK    4  A    between atoms: _8  and  _9
REMARK    5  A    between atoms: _12  and  _14
REMARK    6  A    between atoms: _14  and  _15
REMARK    7  A    between atoms: _14  and  _17
REMARK    8  A    between atoms: _20  and  _22
REMARK    9  A    between atoms: _22  and  _23
REMARK   10  A    between atoms: _22  and  _25
REMARK   11  A    between atoms: _25  and  _26
REMARK   12  A    between atoms: _31  and  _33
REMARK   13  A    between atoms: _33  and  _34
REMARK   14  A    between atoms: _33  and  _36
REMARK   15  A    between atoms: _36  and  _37
REMARK   16  A    between atoms: _37  and  _38
REMARK   17  A    between atoms: _43  and  _45
REMARK   18  A    between atoms: _45  and  _46
REMARK   19  A    between atoms: _45  and  _48
REMARK   20  A    between atoms: _48  and  _49
REMARK   21  A    between atoms: _55  and  _57
REMARK   22  A    between atoms: _57  and  _58
REMARK   23  A    between atoms: _57  and  _60
REMARK   24  A    between atoms: _60  and  _61
REMARK   25  A    between atoms: _64  and  _66
REMARK   26  A    between atoms: _66  and  _67
REMARK   27  A    between atoms: _66  and  _69
REMARK   28  A    between atoms: _69  and  _70
REMARK   29  A    between atoms: _70  and  _71
REMARK   30  A    between atoms: _71  and  _72
REMARK   31  A    between atoms: _72  and  _73
REMARK   32  A    between atoms: _77  and  _79
REMARK   33  A    between atoms: _79  and  _80
REMARK   34  A    between atoms: _79  and  _82
REMARK   35  A    between atoms: _82  and  _83
REMARK   36  A    between atoms: _83  and  _84
REMARK   37  A    between atoms: _87  and  _89
REMARK   38  A    between atoms: _89  and  _90
REMARK   39  A    between atoms: _89  and  _92
REMARK   40  A    between atoms: _92  and  _93
REMARK   41  A    between atoms: _96  and  _98
REMARK   42  A    between atoms: _98  and  _99
REMARK   43  A    between atoms: _98  and  _101
REMARK   44  A    between atoms: _101  and  _102
REMARK   45  A    between atoms: _107  and  _108
REMARK   46  A    between atoms: _110  and  _112
REMARK   47  A    between atoms: _112  and  _113
REMARK   48  A    between atoms: _112  and  _115
REMARK   49  A    between atoms: _115  and  _116
REMARK   50  A    between atoms: _119  and  _121
REMARK   51  A    between atoms: _121  and  _122
REMARK   52  A    between atoms: _121  and  _124
REMARK   53  A    between atoms: _124  and  _125
REMARK   54  A    between atoms: _128  and  _130
REMARK   55  A    between atoms: _130  and  _131
REMARK   56  A    between atoms: _130  and  _133
REMARK   57  A    between atoms: _136  and  _138
REMARK   58  A    between atoms: _138  and  _139
REMARK   59  A    between atoms: _141  and  _143
REMARK   60  A    between atoms: _143  and  _144
REMARK   61  A    between atoms: _143  and  _146
REMARK   62  A    between atoms: _146  and  _147
REMARK   63  A    between atoms: _147  and  _148
REMARK   64  A    between atoms: _148  and  _149
REMARK   65  A    between atoms: _158  and  _160
REMARK   66  A    between atoms: _160  and  _161
REMARK   67  A    between atoms: _160  and  _163
REMARK   68  A    between atoms: _163  and  _164
REMARK   69  A    between atoms: _167  and  _169
REMARK   70  A    between atoms: _169  and  _170
REMARK   71  A    between atoms: _169  and  _172
REMARK   72  A    between atoms: _172  and  _173
REMARK   73  A    between atoms: _178  and  _180
REMARK   74  A    between atoms: _180  and  _181
REMARK   75  A    between atoms: _180  and  _183
REMARK   76  A    between atoms: _183  and  _184
REMARK   77  A    between atoms: _184  and  _185
REMARK   78  A    between atoms: _188  and  _190
REMARK   79  A    between atoms: _190  and  _191
REMARK   80  A    between atoms: _190  and  _193
REMARK   81  A    between atoms: _193  and  _194
REMARK   82  A    between atoms: _194  and  _195
REMARK   83  A    between atoms: _195  and  _196
REMARK   84  A    between atoms: _196  and  _197
REMARK   85  A    between atoms: _201  and  _203
REMARK   86  A    between atoms: _203  and  _204
REMARK   87  A    between atoms: _206  and  _208
REMARK   88  A    between atoms: _208  and  _209
REMARK   89  A    between atoms: _208  and  _211
REMARK   90  A    between atoms: _212  and  _213
REMARK   91  A    between atoms: _216  and  _218
REMARK   92  A    between atoms: _218  and  _219
REMARK   93  A    between atoms: _218  and  _221
REMARK   94  A    between atoms: _221  and  _222
REMARK   95  A    between atoms: _222  and  _223
REMARK   96  A    between atoms: _228  and  _230
REMARK   97  A    between atoms: _230  and  _231
REMARK   98  A    between atoms: _230  and  _233
REMARK   99  A    between atoms: _233  and  _234
REMARK  100  A    between atoms: _237  and  _239
REMARK  101  A    between atoms: _239  and  _240
REMARK  102  A    between atoms: _239  and  _242
REMARK  103  A    between atoms: _245  and  _247
REMARK  104  A    between atoms: _247  and  _248
REMARK  105  A    between atoms: _247  and  _250
REMARK  106  A    between atoms: _250  and  _251
REMARK  107  A    between atoms: _253  and  _255
REMARK  108  A    between atoms: _255  and  _256
REMARK  109  A    between atoms: _255  and  _258
REMARK  110  A    between atoms: _258  and  _259
REMARK  111  A    between atoms: _261  and  _263
REMARK  112  A    between atoms: _263  and  _264
REMARK  113  A    between atoms: _263  and  _266
REMARK  114  A    between atoms: _266  and  _267
REMARK  115  A    between atoms: _273  and  _275
REMARK  116  A    between atoms: _275  and  _276
REMARK  117  A    between atoms: _275  and  _278
REMARK  118  A    between atoms: _278  and  _279
REMARK  119  A    between atoms: _282  and  _284
REMARK  120  A    between atoms: _284  and  _285
REMARK  121  A    between atoms: _284  and  _287
REMARK  122  A    between atoms: _287  and  _288
REMARK  123  A    between atoms: _291  and  _293
REMARK  124  A    between atoms: _293  and  _294
REMARK  125  A    between atoms: _293  and  _296
REMARK  126  A    between atoms: _296  and  _297
REMARK  127  A    between atoms: _300  and  _302
REMARK  128  A    between atoms: _302  and  _303
REMARK  129  A    between atoms: _302  and  _305
REMARK  130  A    between atoms: _305  and  _306
REMARK  131  A    between atoms: _306  and  _307
REMARK  132  A    between atoms: _309  and  _311
REMARK  133  A    between atoms: _311  and  _312
REMARK  134  A    between atoms: _311  and  _314
REMARK  135  A    between atoms: _314  and  _315
REMARK  136  A    between atoms: _321  and  _323
REMARK  137  A    between atoms: _323  and  _324
REMARK  138  A    between atoms: _323  and  _326
REMARK  139  A    between atoms: _328  and  _330
REMARK  140  A    between atoms: _330  and  _331
REMARK  141  A    between atoms: _334  and  _336
REMARK  142  A    between atoms: _336  and  _337
REMARK  143  A    between atoms: _339  and  _341
REMARK  144  A    between atoms: _341  and  _342
REMARK  145  A    between atoms: _341  and  _344
REMARK  146  A    between atoms: _344  and  _345
REMARK  147  A    between atoms: _345  and  _346
REMARK  148  A    between atoms: _349  and  _351
REMARK  149  A    between atoms: _351  and  _352
REMARK  150  A    between atoms: _351  and  _354
REMARK  151  A    between atoms: _354  and  _355
REMARK  152  A    between atoms: _358  and  _360
REMARK  153  A    between atoms: _360  and  _361
REMARK  154  A    between atoms: _364  and  _366
REMARK  155  A    between atoms: _366  and  _367
REMARK  156  A    between atoms: _366  and  _369
REMARK  157  A    between atoms: _369  and  _370
REMARK  158  A    between atoms: _370  and  _493
REMARK  159  A    between atoms: _371  and  _373
REMARK  160  A    between atoms: _373  and  _374
REMARK  161  A    between atoms: _373  and  _376
REMARK  162  A    between atoms: _376  and  _377
REMARK  163  A    between atoms: _377  and  _378
REMARK  164  A    between atoms: _383  and  _385
REMARK  165  A    between atoms: _385  and  _386
REMARK  166  A    between atoms: _388  and  _390
REMARK  167  A    between atoms: _390  and  _391
REMARK  168  A    between atoms: _390  and  _393
REMARK  169  A    between atoms: _393  and  _394
REMARK  170  A    between atoms: _397  and  _399
REMARK  171  A    between atoms: _399  and  _400
REMARK  172  A    between atoms: _399  and  _402
REMARK  173  A    between atoms: _402  and  _403
REMARK  174  A    between atoms: _405  and  _407
REMARK  175  A    between atoms: _407  and  _408
REMARK  176  A    between atoms: _410  and  _412
REMARK  177  A    between atoms: _412  and  _413
REMARK  178  A    between atoms: _415  and  _417
REMARK  179  A    between atoms: _417  and  _418
REMARK  180  A    between atoms: _417  and  _420
REMARK  181  A    between atoms: _420  and  _421
REMARK  182  A    between atoms: _426  and  _428
REMARK  183  A    between atoms: _428  and  _429
REMARK  184  A    between atoms: _428  and  _431
REMARK  185  A    between atoms: _431  and  _432
REMARK  186  A    between atoms: _435  and  _437
REMARK  187  A    between atoms: _437  and  _438
REMARK  188  A    between atoms: _437  and  _440
REMARK  189  A    between atoms: _443  and  _445
REMARK  190  A    between atoms: _445  and  _446
REMARK  191  A    between atoms: _445  and  _448
REMARK  192  A    between atoms: _448  and  _449
REMARK  193  A    between atoms: _451  and  _453
REMARK  194  A    between atoms: _453  and  _454
REMARK  195  A    between atoms: _453  and  _456
REMARK  196  A    between atoms: _456  and  _457
REMARK  197  A    between atoms: _467  and  _469
REMARK  198  A    between atoms: _469  and  _470
REMARK  199  A    between atoms: _472  and  _474
REMARK  200  A    between atoms: _474  and  _475
REMARK  201  A    between atoms: _474  and  _477
REMARK  202  A    between atoms: _477  and  _478
REMARK  203  A    between atoms: _478  and  _479
REMARK  204  A    between atoms: _482  and  _484
REMARK  205  A    between atoms: _484  and  _485
REMARK  206  A    between atoms: _487  and  _489
REMARK  207  A    between atoms: _489  and  _490
REMARK  208  A    between atoms: _489  and  _492
REMARK  209  A    between atoms: _492  and  _493
REMARK  210  A    between atoms: _494  and  _496
REMARK  211  A    between atoms: _496  and  _497
REMARK  212  A    between atoms: _500  and  _502
REMARK  213  A    between atoms: _502  and  _503
REMARK  214  A    between atoms: _502  and  _505
REMARK  215  A    between atoms: _505  and  _506
REMARK  216  A    between atoms: _506  and  _507
REMARK  217  A    between atoms: _507  and  _508
REMARK  218  A    between atoms: _517  and  _519
REMARK  219  A    between atoms: _519  and  _520
REMARK  220  A    between atoms: _519  and  _522
REMARK  221  A    between atoms: _522  and  _523
REMARK  222  A    between atoms: _523  and  _524
REMARK  223  A    between atoms: _524  and  _525
REMARK  224  A    between atoms: _525  and  _526
REMARK  225  A    between atoms: _530  and  _532
REMARK  226  A    between atoms: _532  and  _533
REMARK  227  A    between atoms: _532  and  _535
REMARK  228  A    between atoms: _535  and  _536
REMARK  229  A    between atoms: _541  and  _542
REMARK  230  A    between atoms: _544  and  _546
REMARK  231  A    between atoms: _546  and  _547
REMARK  232  A    between atoms: _549  and  _551
REMARK  233  A    between atoms: _551  and  _552
REMARK  234  A    between atoms: _551  and  _554
REMARK  235  A    between atoms: _554  and  _555
REMARK  236  A    between atoms: _558  and  _560
REMARK  237  A    between atoms: _560  and  _561
REMARK  238  A    between atoms: _560  and  _563
REMARK  239  A    between atoms: _563  and  _564
REMARK  240  A    between atoms: _569  and  _570
REMARK  241  A    between atoms: _572  and  _574
REMARK  242  A    between atoms: _574  and  _575
REMARK  243  A    between atoms: _574  and  _577
REMARK  244  A    between atoms: _577  and  _578
REMARK                            x       y       z     vdW  Elec       q    Type
REMARK                         _______ _______ _______ _____ _____    ______ ____
ROOT
ATOM      1  CA  ASP A   1      15.351  54.133  -1.162  0.00  0.00    +0.144 C 
ENDROOT
BRANCH   1   2
ATOM      2  N   ASP A   1      15.042  52.790  -0.596  0.00  0.00    -0.239 NA
ATOM      3  H   ASP A   1      14.944  52.681   0.434  0.00  0.00    +0.142 HD
ENDBRANCH   1   2
BRANCH   1   4
ATOM      4  C   ASP A   1      16.833  54.285  -1.452  0.00  0.00    +0.225 C 
ATOM      5  O   ASP A   1      17.577  54.963  -0.733  0.00  0.00    -0.287 OA
ENDBRANCH   1   4
BRANCH   1   6
ATOM      6  CB  ASP A   1      14.742  55.256  -0.308  0.00  0.00    +0.139 C 
BRANCH   6   7
ATOM      7  CG  ASP A   1      14.717  56.625  -1.033  0.00  0.00    +0.367 C 
ATOM      8  OD2 ASP A   1      14.552  57.671  -0.326  0.00  0.00    -0.246 OA
ATOM      9  OD1 ASP A   1      14.978  56.656  -2.282  0.00  0.00    -0.246 OA
ENDBRANCH   6   7
ENDBRANCH   1   6
TORSDOF 4
REMARK  Name = ../refined-set-2016/2xbv/2xbv_pocket.pdb
REMARK  244 active torsions:
REMARK  status: ('A' for Active; 'I' for Inactive)
REMARK    1  A    between atoms: _1  and  _5
REMARK    2  A    between atoms: _5  and  _6
REMARK    3  A    between atoms: _5  and  _8
REMARK    4  A    between atoms: _8  and  _9
REMARK    5  A    between atoms: _12  and  _14
REMARK    6  A    between atoms: _14  and  _15
REMARK    7  A    between atoms: _14  and  _17
REMARK    8  A    between atoms: _20  and  _22
REMARK    9  A    between atoms: _22  and  _23
REMARK   10  A    between atoms: _22  and  _25
REMARK   11  A    between atoms: _25  and  _26
REMARK   12  A    between atoms: _31  and  _33
REMARK   13  A    between atoms: _33  and  _34
REMARK   14  A    between atoms: _33  and  _36
REMARK   15  A    between atoms: _36  and  _37
REMARK   16  A    between atoms: _37  and  _38
REMARK   17  A    between atoms: _43  and  _45
REMARK   18  A    between atoms: _45  and  _46
REMARK   19  A    between atoms: _45  and  _48
REMARK   20  A    between atoms: _48  and  _49
REMARK   21  A    between atoms: _55  and  _57
REMARK   22  A    between atoms: _57  and  _58
REMARK   23  A    between atoms: _57  and  _60
REMARK   24  A    between atoms: _60  and  _61
REMARK   25  A    between atoms: _64  and  _66
REMARK   26  A    between atoms: _66  and  _67
REMARK   27  A    between atoms: _66  and  _69
REMARK   28  A    between atoms: _69  and  _70
REMARK   29  A    between atoms: _70  and  _71
REMARK   30  A    between atoms: _71  and  _72
REMARK   31  A    between atoms: _72  and  _73
REMARK   32  A    between atoms: _77  and  _79
REMARK   33  A    between atoms: _79  and  _80
REMARK   34  A    between atoms: _79  and  _82
REMARK   35  A    between atoms: _82  and  _83
REMARK   36  A    between atoms: _83  and  _84
REMARK   37  A    between atoms: _87  and  _89
REMARK   38  A    between atoms: _89  and  _90
REMARK   39  A    between atoms: _89  and  _92
REMARK   40  A    between atoms: _92  and  _93
REMARK   41  A    between atoms: _96  and  _98
REMARK   42  A    between atoms: _98  and  _99
REMARK   43  A    between atoms: _98  and  _101
REMARK   44  A    between atoms: _101  and  _102
REMARK   45  A    between atoms: _107  and  _108
REMARK   46  A    between atoms: _110  and  _112
REMARK   47  A    between atoms: _112  and  _113
REMARK   48  A    between atoms: _112  and  _115
REMARK   49  A    between atoms: _115  and  _116
REMARK   50  A    between atoms: _119  and  _121
REMARK   51  A    between atoms: _121  and  _122
REMARK   52  A    between atoms: _121  and  _124
REMARK   53  A    between atoms: _124  and  _125
REMARK   54  A    between atoms: _128  and  _130
REMARK   55  A    between atoms: _130  and  _131
REMARK   56  A    between atoms: _130  and  _133
REMARK   57  A    between atoms: _136  and  _138
REMARK   58  A    between atoms: _138  and  _139
REMARK   59  A    between atoms: _141  and  _143
REMARK   60  A    between atoms: _143  and  _144
REMARK   61  A    between atoms: _143  and  _146
REMARK   62  A    between atoms: _146  and  _147
REMARK   63  A    between atoms: _147  and  _148
REMARK   64  A    between atoms: _148  and  _149
REMARK   65  A    between atoms: _158  and  _160
REMARK   66  A    between atoms: _160  and  _161
REMARK   67  A    between atoms: _160  and  _163
REMARK   68  A    between atoms: _163  and  _164
REMARK   69  A    between atoms: _167  and  _169
REMARK   70  A    between atoms: _169  and  _170
REMARK   71  A    between atoms: _169  and  _172
REMARK   72  A    between atoms: _172  and  _173
REMARK   73  A    between atoms: _178  and  _180
REMARK   74  A    between atoms: _180  and  _181
REMARK   75  A    between atoms: _180  and  _183
REMARK   76  A    between atoms: _183  and  _184
REMARK   77  A    between atoms: _184  and  _185
REMARK   78  A    between atoms: _188  and  _190
REMARK   79  A    between atoms: _190  and  _191
REMARK   80  A    between atoms: _190  and  _193
REMARK   81  A    between atoms: _193  and  _194
REMARK   82  A    between atoms: _194  and  _195
REMARK   83  A    between atoms: _195  and  _196
REMARK   84  A    between atoms: _196  and  _197
REMARK   85  A    between atoms: _201  and  _203
REMARK   86  A    between atoms: _203  and  _204
REMARK   87  A    between atoms: _206  and  _208
REMARK   88  A    between atoms: _208  and  _209
REMARK   89  A    between atoms: _208  and  _211
REMARK   90  A    between atoms: _212  and  _213
REMARK   91  A    between atoms: _216  and  _218
REMARK   92  A    between atoms: _218  and  _219
REMARK   93  A    between atoms: _218  and  _221
REMARK   94  A    between atoms: _221  and  _222
REMARK   95  A    between atoms: _222  and  _223
REMARK   96  A    between atoms: _228  and  _230
REMARK   97  A    between atoms: _230  and  _231
REMARK   98  A    between atoms: _230  and  _233
REMARK   99  A    between atoms: _233  and  _234
REMARK  100  A    between atoms: _237  and  _239
REMARK  101  A    between atoms: _239  and  _240
REMARK  102  A    between atoms: _239  and  _242
REMARK  103  A    between atoms: _245  and  _247
REMARK  104  A    between atoms: _247  and  _248
REMARK  105  A    between atoms: _247  and  _250
REMARK  106  A    between atoms: _250  and  _251
REMARK  107  A    between atoms: _253  and  _255
REMARK  108  A    between atoms: _255  and  _256
REMARK  109  A    between atoms: _255  and  _258
REMARK  110  A    between atoms: _258  and  _259
REMARK  111  A    between atoms: _261  and  _263
REMARK  112  A    between atoms: _263  and  _264
REMARK  113  A    between atoms: _263  and  _266
REMARK  114  A    between atoms: _266  and  _267
REMARK  115  A    between atoms: _273  and  _275
REMARK  116  A    between atoms: _275  and  _276
REMARK  117  A    between atoms: _275  and  _278
REMARK  118  A    between atoms: _278  and  _279
REMARK  119  A    between atoms: _282  and  _284
REMARK  120  A    between atoms: _284  and  _285
REMARK  121  A    between atoms: _284  and  _287
REMARK  122  A    between atoms: _287  and  _288
REMARK  123  A    between atoms: _291  and  _293
REMARK  124  A    between atoms: _293  and  _294
REMARK  125  A    between atoms: _293  and  _296
REMARK  126  A    between atoms: _296  and  _297
REMARK  127  A    between atoms: _300  and  _302
REMARK  128  A    between atoms: _302  and  _303
REMARK  129  A    between atoms: _302  and  _305
REMARK  130  A    between atoms: _305  and  _306
REMARK  131  A    between atoms: _306  and  _307
REMARK  132  A    between atoms: _309  and  _311
REMARK  133  A    between atoms: _311  and  _312
REMARK  134  A    between atoms: _311  and  _314
REMARK  135  A    between atoms: _314  and  _315
REMARK  136  A    between atoms: _321  and  _323
REMARK  137  A    between atoms: _323  and  _324
REMARK  138  A    between atoms: _323  and  _326
REMARK  139  A    between atoms: _328  and  _330
REMARK  140  A    between atoms: _330  and  _331
REMARK  141  A    between atoms: _334  and  _336
REMARK  142  A    between atoms: _336  and  _337
REMARK  143  A    between atoms: _339  and  _341
REMARK  144  A    between atoms: _341  and  _342
REMARK  145  A    between atoms: _341  and  _344
REMARK  146  A    between atoms: _344  and  _345
REMARK  147  A    between atoms: _345  and  _346
REMARK  148  A    between atoms: _349  and  _351
REMARK  149  A    between atoms: _351  and  _352
REMARK  150  A    between atoms: _351  and  _354
REMARK  151  A    between atoms: _354  and  _355
REMARK  152  A    between atoms: _358  and  _360
REMARK  153  A    between atoms: _360  and  _361
REMARK  154  A    between atoms: _364  and  _366
REMARK  155  A    between atoms: _366  and  _367
REMARK  156  A    between atoms: _366  and  _369
REMARK  157  A    between atoms: _369  and  _370
REMARK  158  A    between atoms: _370  and  _493
REMARK  159  A    between atoms: _371  and  _373
REMARK  160  A    between atoms: _373  and  _374
REMARK  161  A    between atoms: _373  and  _376
REMARK  162  A    between atoms: _376  and  _377
REMARK  163  A    between atoms: _377  and  _378
REMARK  164  A    between atoms: _383  and  _385
REMARK  165  A    between atoms: _385  and  _386
REMARK  166  A    between atoms: _388  and  _390
REMARK  167  A    between atoms: _390  and  _391
REMARK  168  A    between atoms: _390  and  _393
REMARK  169  A    between atoms: _393  and  _394
REMARK  170  A    between atoms: _397  and  _399
REMARK  171  A    between atoms: _399  and  _400
REMARK  172  A    between atoms: _399  and  _402
REMARK  173  A    between atoms: _402  and  _403
REMARK  174  A    between atoms: _405  and  _407
REMARK  175  A    between atoms: _407  and  _408
REMARK  176  A    between atoms: _410  and  _412
REMARK  177  A    between atoms: _412  and  _413
REMARK  178  A    between atoms: _415  and  _417
REMARK  179  A    between atoms: _417  and  _418
REMARK  180  A    between atoms: _417  and  _420
REMARK  181  A    between atoms: _420  and  _421
REMARK  182  A    between atoms: _426  and  _428
REMARK  183  A    between atoms: _428  and  _429
REMARK  184  A    between atoms: _428  and  _431
REMARK  185  A    between atoms: _431  and  _432
REMARK  186  A    between atoms: _435  and  _437
REMARK  187  A    between atoms: _437  and  _438
REMARK  188  A    between atoms: _437  and  _440
REMARK  189  A    between atoms: _443  and  _445
REMARK  190  A    between atoms: _445  and  _446
REMARK  191  A    between atoms: _445  and  _448
REMARK  192  A    between atoms: _448  and  _449
REMARK  193  A    between atoms: _451  and  _453
REMARK  194  A    between atoms: _453  and  _454
REMARK  195  A    between atoms: _453  and  _456
REMARK  196  A    between atoms: _456  and  _457
REMARK  197  A    between atoms: _467  and  _469
REMARK  198  A    between atoms: _469  and  _470
REMARK  199  A    between atoms: _472  and  _474
REMARK  200  A    between atoms: _474  and  _475
REMARK  201  A    between atoms: _474  and  _477
REMARK  202  A    between atoms: _477  and  _478
REMARK  203  A    between atoms: _478  and  _479
REMARK  204  A    between atoms: _482  and  _484
REMARK  205  A    between atoms: _484  and  _485
REMARK  206  A    between atoms: _487  and  _489
REMARK  207  A    between atoms: _489  and  _490
REMARK  208  A    between atoms: _489  and  _492
REMARK  209  A    between atoms: _492  and  _493
REMARK  210  A    between atoms: _494  and  _496
REMARK  211  A    between atoms: _496  and  _497
REMARK  212  A    between atoms: _500  and  _502
REMARK  213  A    between atoms: _502  and  _503
REMARK  214  A    between atoms: _502  and  _505
REMARK  215  A    between atoms: _505  and  _506
REMARK  216  A    between atoms: _506  and  _507
REMARK  217  A    between atoms: _507  and  _508
REMARK  218  A    between atoms: _517  and  _519
REMARK  219  A    between atoms: _519  and  _520
REMARK  220  A    between atoms: _519  and  _522
REMARK  221  A    between atoms: _522  and  _523
REMARK  222  A    between atoms: _523  and  _524
REMARK  223  A    between atoms: _524  and  _525
REMARK  224  A    between atoms: _525  and  _526
REMARK  225  A    between atoms: _530  and  _532
REMARK  226  A    between atoms: _532  and  _533
REMARK  227  A    between atoms: _532  and  _535
REMARK  228  A    between atoms: _535  and  _536
REMARK  229  A    between atoms: _541  and  _542
REMARK  230  A    between atoms: _544  and  _546
REMARK  231  A    between atoms: _546  and  _547
REMARK  232  A    between atoms: _549  and  _551
REMARK  233  A    between atoms: _551  and  _552
REMARK  234  A    between atoms: _551  and  _554
REMARK  235  A    between atoms: _554  and  _555
REMARK  236  A    between atoms: _558  and  _560
REMARK  237  A    between atoms: _560  and  _561
REMARK  238  A    between atoms: _560  and  _563
REMARK  239  A    between atoms: _563  and  _564
REMARK  240  A    between atoms: _569  and  _570
REMARK  241  A    between atoms: _572  and  _574
REMARK  242  A    between atoms: _574  and  _575
REMARK  243  A    between atoms: _574  and  _577
REMARK  244  A    between atoms: _577  and  _578
REMARK                            x       y       z     vdW  Elec       q    Type
REMARK                         _______ _______ _______ _____ _____    ______ ____
ROOT
ATOM      1  CA  VAL A   1      24.692  64.020   7.878  0.00  0.00    +0.133 C 
ENDROOT
BRANCH   1   2
ATOM      2  CB  VAL A   1      23.144  63.969   8.097  0.00  0.00    +0.023 C 
ATOM      3  CG2 VAL A   1      22.616  65.098   9.017  0.00  0.00    +0.002 C 
ATOM      4  CG1 VAL A   1      22.408  63.978   6.756  0.00  0.00    +0.002 C 
ENDBRANCH   1   2
BRANCH   1   5
ATOM      5  N   VAL A   1      25.456  63.820   9.126  0.00  0.00    -0.239 NA
ATOM      6  H   VAL A   1      25.246  64.427   9.944  0.00  0.00    +0.142 HD
ENDBRANCH   1   5
BRANCH   1   7
ATOM      7  C   VAL A   1      25.174  65.359   7.251  0.00  0.00    +0.224 C 
ATOM      8  O   VAL A   1      25.490  66.343   7.958  0.00  0.00    -0.287 OA
ENDBRANCH   1   7
TORSDOF 3
REMARK  Name = ../refined-set-2016/2xbv/2xbv_pocket.pdb
REMARK  244 active torsions:
REMARK  status: ('A' for Active; 'I' for Inactive)
REMARK    1  A    between atoms: _1  and  _5
REMARK    2  A    between atoms: _5  and  _6
REMARK    3  A    between atoms: _5  and  _8
REMARK    4  A    between atoms: _8  and  _9
REMARK    5  A    between atoms: _12  and  _14
REMARK    6  A    between atoms: _14  and  _15
REMARK    7  A    between atoms: _14  and  _17
REMARK    8  A    between atoms: _20  and  _22
REMARK    9  A    between atoms: _22  and  _23
REMARK   10  A    between atoms: _22  and  _25
REMARK   11  A    between atoms: _25  and  _26
REMARK   12  A    between atoms: _31  and  _33
REMARK   13  A    between atoms: _33  and  _34
REMARK   14  A    between atoms: _33  and  _36
REMARK   15  A    between atoms: _36  and  _37
REMARK   16  A    between atoms: _37  and  _38
REMARK   17  A    between atoms: _43  and  _45
REMARK   18  A    between atoms: _45  and  _46
REMARK   19  A    between atoms: _45  and  _48
REMARK   20  A    between atoms: _48  and  _49
REMARK   21  A    between atoms: _55  and  _57
REMARK   22  A    between atoms: _57  and  _58
REMARK   23  A    between atoms: _57  and  _60
REMARK   24  A    between atoms: _60  and  _61
REMARK   25  A    between atoms: _64  and  _66
REMARK   26  A    between atoms: _66  and  _67
REMARK   27  A    between atoms: _66  and  _69
REMARK   28  A    between atoms: _69  and  _70
REMARK   29  A    between atoms: _70  and  _71
REMARK   30  A    between atoms: _71  and  _72
REMARK   31  A    between atoms: _72  and  _73
REMARK   32  A    between atoms: _77  and  _79
REMARK   33  A    between atoms: _79  and  _80
REMARK   34  A    between atoms: _79  and  _82
REMARK   35  A    between atoms: _82  and  _83
REMARK   36  A    between atoms: _83  and  _84
REMARK   37  A    between atoms: _87  and  _89
REMARK   38  A    between atoms: _89  and  _90
REMARK   39  A    between atoms: _89  and  _92
REMARK   40  A    between atoms: _92  and  _93
REMARK   41  A    between atoms: _96  and  _98
REMARK   42  A    between atoms: _98  and  _99
REMARK   43  A    between atoms: _98  and  _101
REMARK   44  A    between atoms: _101  and  _102
REMARK   45  A    between atoms: _107  and  _108
REMARK   46  A    between atoms: _110  and  _112
REMARK   47  A    between atoms: _112  and  _113
REMARK   48  A    between atoms: _112  and  _115
REMARK   49  A    between atoms: _115  and  _116
REMARK   50  A    between atoms: _119  and  _121
REMARK   51  A    between atoms: _121  and  _122
REMARK   52  A    between atoms: _121  and  _124
REMARK   53  A    between atoms: _124  and  _125
REMARK   54  A    between atoms: _128  and  _130
REMARK   55  A    between atoms: _130  and  _131
REMARK   56  A    between atoms: _130  and  _133
REMARK   57  A    between atoms: _136  and  _138
REMARK   58  A    between atoms: _138  and  _139
REMARK   59  A    between atoms: _141  and  _143
REMARK   60  A    between atoms: _143  and  _144
REMARK   61  A    between atoms: _143  and  _146
REMARK   62  A    between atoms: _146  and  _147
REMARK   63  A    between atoms: _147  and  _148
REMARK   64  A    between atoms: _148  and  _149
REMARK   65  A    between atoms: _158  and  _160
REMARK   66  A    between atoms: _160  and  _161
REMARK   67  A    between atoms: _160  and  _163
REMARK   68  A    between atoms: _163  and  _164
REMARK   69  A    between atoms: _167  and  _169
REMARK   70  A    between atoms: _169  and  _170
REMARK   71  A    between atoms: _169  and  _172
REMARK   72  A    between atoms: _172  and  _173
REMARK   73  A    between atoms: _178  and  _180
REMARK   74  A    between atoms: _180  and  _181
REMARK   75  A    between atoms: _180  and  _183
REMARK   76  A    between atoms: _183  and  _184
REMARK   77  A    between atoms: _184  and  _185
REMARK   78  A    between atoms: _188  and  _190
REMARK   79  A    between atoms: _190  and  _191
REMARK   80  A    between atoms: _190  and  _193
REMARK   81  A    between atoms: _193  and  _194
REMARK   82  A    between atoms: _194  and  _195
REMARK   83  A    between atoms: _195  and  _196
REMARK   84  A    between atoms: _196  and  _197
REMARK   85  A    between atoms: _201  and  _203
REMARK   86  A    between atoms: _203  and  _204
REMARK   87  A    between atoms: _206  and  _208
REMARK   88  A    between atoms: _208  and  _209
REMARK   89  A    between atoms: _208  and  _211
REMARK   90  A    between atoms: _212  and  _213
REMARK   91  A    between atoms: _216  and  _218
REMARK   92  A    between atoms: _218  and  _219
REMARK   93  A    between atoms: _218  and  _221
REMARK   94  A    between atoms: _221  and  _222
REMARK   95  A    between atoms: _222  and  _223
REMARK   96  A    between atoms: _228  and  _230
REMARK   97  A    between atoms: _230  and  _231
REMARK   98  A    between atoms: _230  and  _233
REMARK   99  A    between atoms: _233  and  _234
REMARK  100  A    between atoms: _237  and  _239
REMARK  101  A    between atoms: _239  and  _240
REMARK  102  A    between atoms: _239  and  _242
REMARK  103  A    between atoms: _245  and  _247
REMARK  104  A    between atoms: _247  and  _248
REMARK  105  A    between atoms: _247  and  _250
REMARK  106  A    between atoms: _250  and  _251
REMARK  107  A    between atoms: _253  and  _255
REMARK  108  A    between atoms: _255  and  _256
REMARK  109  A    between atoms: _255  and  _258
REMARK  110  A    between atoms: _258  and  _259
REMARK  111  A    between atoms: _261  and  _263
REMARK  112  A    between atoms: _263  and  _264
REMARK  113  A    between atoms: _263  and  _266
REMARK  114  A    between atoms: _266  and  _267
REMARK  115  A    between atoms: _273  and  _275
REMARK  116  A    between atoms: _275  and  _276
REMARK  117  A    between atoms: _275  and  _278
REMARK  118  A    between atoms: _278  and  _279
REMARK  119  A    between atoms: _282  and  _284
REMARK  120  A    between atoms: _284  and  _285
REMARK  121  A    between atoms: _284  and  _287
REMARK  122  A    between atoms: _287  and  _288
REMARK  123  A    between atoms: _291  and  _293
REMARK  124  A    between atoms: _293  and  _294
REMARK  125  A    between atoms: _293  and  _296
REMARK  126  A    between atoms: _296  and  _297
REMARK  127  A    between atoms: _300  and  _302
REMARK  128  A    between atoms: _302  and  _303
REMARK  129  A    between atoms: _302  and  _305
REMARK  130  A    between atoms: _305  and  _306
REMARK  131  A    between atoms: _306  and  _307
REMARK  132  A    between atoms: _309  and  _311
REMARK  133  A    between atoms: _311  and  _312
REMARK  134  A    between atoms: _311  and  _314
REMARK  135  A    between atoms: _314  and  _315
REMARK  136  A    between atoms: _321  and  _323
REMARK  137  A    between atoms: _323  and  _324
REMARK  138  A    between atoms: _323  and  _326
REMARK  139  A    between atoms: _328  and  _330
REMARK  140  A    between atoms: _330  and  _331
REMARK  141  A    between atoms: _334  and  _336
REMARK  142  A    between atoms: _336  and  _337
REMARK  143  A    between atoms: _339  and  _341
REMARK  144  A    between atoms: _341  and  _342
REMARK  145  A    between atoms: _341  and  _344
REMARK  146  A    between atoms: _344  and  _345
REMARK  147  A    between atoms: _345  and  _346
REMARK  148  A    between atoms: _349  and  _351
REMARK  149  A    between atoms: _351  and  _352
REMARK  150  A    between atoms: _351  and  _354
REMARK  151  A    between atoms: _354  and  _355
REMARK  152  A    between atoms: _358  and  _360
REMARK  153  A    between atoms: _360  and  _361
REMARK  154  A    between atoms: _364  and  _366
REMARK  155  A    between atoms: _366  and  _367
REMARK  156  A    between atoms: _366  and  _369
REMARK  157  A    between atoms: _369  and  _370
REMARK  158  A    between atoms: _370  and  _493
REMARK  159  A    between atoms: _371  and  _373
REMARK  160  A    between atoms: _373  and  _374
REMARK  161  A    between atoms: _373  and  _376
REMARK  162  A    between atoms: _376  and  _377
REMARK  163  A    between atoms: _377  and  _378
REMARK  164  A    between atoms: _383  and  _385
REMARK  165  A    between atoms: _385  and  _386
REMARK  166  A    between atoms: _388  and  _390
REMARK  167  A    between atoms: _390  and  _391
REMARK  168  A    between atoms: _390  and  _393
REMARK  169  A    between atoms: _393  and  _394
REMARK  170  A    between atoms: _397  and  _399
REMARK  171  A    between atoms: _399  and  _400
REMARK  172  A    between atoms: _399  and  _402
REMARK  173  A    between atoms: _402  and  _403
REMARK  174  A    between atoms: _405  and  _407
REMARK  175  A    between atoms: _407  and  _408
REMARK  176  A    between atoms: _410  and  _412
REMARK  177  A    between atoms: _412  and  _413
REMARK  178  A    between atoms: _415  and  _417
REMARK  179  A    between atoms: _417  and  _418
REMARK  180  A    between atoms: _417  and  _420
REMARK  181  A    between atoms: _420  and  _421
REMARK  182  A    between atoms: _426  and  _428
REMARK  183  A    between atoms: _428  and  _429
REMARK  184  A    between atoms: _428  and  _431
REMARK  185  A    between atoms: _431  and  _432
REMARK  186  A    between atoms: _435  and  _437
REMARK  187  A    between atoms: _437  and  _438
REMARK  188  A    between atoms: _437  and  _440
REMARK  189  A    between atoms: _443  and  _445
REMARK  190  A    between atoms: _445  and  _446
REMARK  191  A    between atoms: _445  and  _448
REMARK  192  A    between atoms: _448  and  _449
REMARK  193  A    between atoms: _451  and  _453
REMARK  194  A    between atoms: _453  and  _454
REMARK  195  A    between atoms: _453  and  _456
REMARK  196  A    between atoms: _456  and  _457
REMARK  197  A    between atoms: _467  and  _469
REMARK  198  A    between atoms: _469  and  _470
REMARK  199  A    between atoms: _472  and  _474
REMARK  200  A    between atoms: _474  and  _475
REMARK  201  A    between atoms: _474  and  _477
REMARK  202  A    between atoms: _477  and  _478
REMARK  203  A    between atoms: _478  and  _479
REMARK  204  A    between atoms: _482  and  _484
REMARK  205  A    between atoms: _484  and  _485
REMARK  206  A    between atoms: _487  and  _489
REMARK  207  A    between atoms: _489  and  _490
REMARK  208  A    between atoms: _489  and  _492
REMARK  209  A    between atoms: _492  and  _493
REMARK  210  A    between atoms: _494  and  _496
REMARK  211  A    between atoms: _496  and  _497
REMARK  212  A    between atoms: _500  and  _502
REMARK  213  A    between atoms: _502  and  _503
REMARK  214  A    between atoms: _502  and  _505
REMARK  215  A    between atoms: _505  and  _506
REMARK  216  A    between atoms: _506  and  _507
REMARK  217  A    between atoms: _507  and  _508
REMARK  218  A    between atoms: _517  and  _519
REMARK  219  A    between atoms: _519  and  _520
REMARK  220  A    between atoms: _519  and  _522
REMARK  221  A    between atoms: _522  and  _523
REMARK  222  A    between atoms: _523  and  _524
REMARK  223  A    between atoms: _524  and  _525
REMARK  224  A    between atoms: _525  and  _526
REMARK  225  A    between atoms: _530  and  _532
REMARK  226  A    between atoms: _532  and  _533
REMARK  227  A    between atoms: _532  and  _535
REMARK  228  A    between atoms: _535  and  _536
REMARK  229  A    between atoms: _541  and  _542
REMARK  230  A    between atoms: _544  and  _546
REMARK  231  A    between atoms: _546  and  _547
REMARK  232  A    between atoms: _549  and  _551
REMARK  233  A    between atoms: _551  and  _552
REMARK  234  A    between atoms: _551  and  _554
REMARK  235  A    between atoms: _554  and  _555
REMARK  236  A    between atoms: _558  and  _560
REMARK  237  A    between atoms: _560  and  _561
REMARK  238  A    between atoms: _560  and  _563
REMARK  239  A    between atoms: _563  and  _564
REMARK  240  A    between atoms: _569  and  _570
REMARK  241  A    between atoms: _572  and  _574
REMARK  242  A    between atoms: _574  and  _575
REMARK  243  A    between atoms: _574  and  _577
REMARK  244  A    between atoms: _577  and  _578
REMARK                            x       y       z     vdW  Elec       q    Type
REMARK                         _______ _______ _______ _____ _____    ______ ____
ROOT
ATOM      1  CA  GLU A   5      11.353  73.387   6.661  0.00  0.00    +0.149 C 
ENDROOT
BRANCH   1   2
ATOM      2  C   GLU A   5      10.680  74.296   5.607  0.00  0.00    +0.241 C 
ATOM      3  N   LYS A   6      10.443  75.553   5.944  0.00  0.00    -0.297 N 
ATOM      4  H   LYS A   6      10.768  75.910   6.865  0.00  0.00    +0.150 HD
ATOM      5  O   GLU A   5      10.391  73.849   4.504  0.00  0.00    -0.273 OA
BRANCH   3   6
ATOM      6  CA  LYS A   6       9.727  76.447   5.030  0.00  0.00    +0.149 C 
BRANCH   6   7
ATOM      7  C   LYS A   6      10.656  77.269   4.104  0.00  0.00    +0.241 C 
ATOM      8  N   GLY A   7      11.929  77.361   4.504  0.00  0.00    -0.295 N 
ATOM      9  H   GLY A   7      12.202  76.832   5.357  0.00  0.00    +0.150 HD
ATOM     10  O   LYS A   6      10.220  77.731   3.031  0.00  0.00    -0.273 OA
BRANCH   8  11
ATOM     11  CA  GLY A   7      12.963  78.142   3.842  0.00  0.00    +0.176 C 
BRANCH  11  12
ATOM     12  C   GLY A   7      13.631  77.584   2.606  0.00  0.00    +0.243 C 
ATOM     13  N   GLU A   8      14.707  78.259   2.211  0.00  0.00    -0.294 N 
ATOM     14  H   GLU A   8      15.024  79.046   2.812  0.00  0.00    +0.150 HD
ATOM     15  O   GLY A   7      13.167  76.628   1.984  0.00  0.00    -0.273 OA
BRANCH  13  16
ATOM     16  CA  GLU A   8      15.472  77.988   1.013  0.00  0.00    +0.172 C 
BRANCH  16  17
ATOM     17  C   GLU A   8      16.606  77.024   1.298  0.00  0.00    +0.245 C 
ATOM     18  O   GLU A   8      17.084  76.927   2.432  0.00  0.00    -0.273 OA
ATOM     19  N   GLN A   9      17.096  76.408   0.228  0.00  0.00    -0.298 N 
ATOM     20  H   GLN A   9      16.600  76.542  -0.676  0.00  0.00    +0.150 HD
BRANCH  19  21
ATOM     21  CA  GLN A   9      18.269  75.566   0.232  0.00  0.00    +0.137 C 
BRANCH  21  22
ATOM     22  C   GLN A   9      19.458  76.415   0.553  0.00  0.00    +0.227 C 
ATOM     23  O   GLN A   9      19.505  77.581   0.140  0.00  0.00    -0.286 OA
ENDBRANCH  21  22
BRANCH  21  24
ATOM     24  CB  GLN A   9      18.468  74.919  -1.125  0.00  0.00    +0.037 C 
BRANCH  24  25
ATOM     25  CG  GLN A   9      17.270  74.059  -1.490  0.00  0.00    +0.087 C 
BRANCH  25  26
ATOM     26  CD  GLN A   9      17.698  73.031  -2.463  0.00  0.00    +0.219 C 
ATOM     27  OE1 GLN A   9      18.097  71.956  -2.063  0.00  0.00    -0.275 OA
ATOM     28  NE2 GLN A   9      17.744  73.398  -3.745  0.00  0.00    -0.329 N 
ATOM     29 HE21 GLN A   9      17.388  74.332  -4.032  0.00  0.00    +0.145 HD
ATOM     30 HE22 GLN A   9      18.136  72.750  -4.458  0.00  0.00    +0.145 HD
ENDBRANCH  25  26
ENDBRANCH  24  25
ENDBRANCH  21  24
ENDBRANCH  19  21
ENDBRANCH  16  17
BRANCH  16  31
ATOM     31  CB  GLU A   8      16.098  79.306   0.490  0.00  0.00    +0.009 C 
ATOM     32  CG  GLU A   8      15.108  80.423   0.188  0.00  0.00    +0.084 C 
BRANCH  32  33
ATOM     33  CD  GLU A   8      15.722  81.794  -0.061  0.00  0.00    +0.388 C 
ATOM     34  OE2 GLU A   8      14.974  82.794   0.040  0.00  0.00    -0.241 OA
ATOM     35  OE1 GLU A   8      16.943  81.875  -0.339  0.00  0.00    -0.241 OA
ENDBRANCH  32  33
ENDBRANCH  16  31
ENDBRANCH  13  16
ENDBRANCH  11  12
ENDBRANCH   8  11
ENDBRANCH   6   7
BRANCH   6  36
ATOM     36  CB  LYS A   6       8.738  77.328   5.833  0.00  0.00    +0.029 C 
BRANCH  36  37
ATOM     37  CG  LYS A   6       7.582  76.510   6.450  0.00  0.00    +0.000 C 
BRANCH  37  38
ATOM     38  CD  LYS A   6       7.836  76.082   7.891  0.00  0.00    -0.024 C 
BRANCH  38  39
ATOM     39  CE  LYS A   6       6.779  75.146   8.414  0.00  0.00    -0.086 C 
BRANCH  39  40
ATOM     40  NZ  LYS A   6       7.136  74.630   9.762  0.00  0.00    +0.380 N 
ATOM     41  HZ1 LYS A   6       7.230  75.427  10.423  0.00  0.00    -0.089 HD
ATOM     42  HZ2 LYS A   6       6.389  73.988  10.095  0.00  0.00    -0.089 HD
ATOM     43  HZ3 LYS A   6       8.038  74.115   9.707  0.00  0.00    -0.089 HD
ENDBRANCH  39  40
ENDBRANCH  38  39
ENDBRANCH  37  38
ENDBRANCH  36  37
ENDBRANCH   6  36
ENDBRANCH   3   6
ENDBRANCH   1   2
BRANCH   1  45
ATOM     44  C   HIS A   4      13.372  74.754   6.813  0.00  0.00    +0.241 C 
ATOM     45  N   GLU A   5      12.408  74.031   7.426  0.00  0.00    -0.297 N 
ATOM     46  H   GLU A   5      12.421  73.934   8.461  0.00  0.00    +0.150 HD
ATOM     47  O   HIS A   4      13.396  74.900   5.594  0.00  0.00    -0.273 OA
BRANCH  44  48
ATOM     48  CA  HIS A   4      14.436  75.416   7.670  0.00  0.00    +0.155 C 
BRANCH  48  51
ATOM     49  C   THR A   3      16.921  75.606   7.393  0.00  0.00    +0.243 C 
ATOM     50  O   THR A   3      17.165  75.772   8.597  0.00  0.00    -0.273 OA
ATOM     51  N   HIS A   4      15.680  75.459   6.893  0.00  0.00    -0.297 N 
ATOM     52  H   HIS A   4      15.595  75.367   5.861  0.00  0.00    +0.150 HD
BRANCH  49  53
ATOM     53  CA  THR A   3      18.078  75.480   6.388  0.00  0.00    +0.176 C 
BRANCH  53  56
ATOM     54  C   ARG A   2      17.431  73.841   4.632  0.00  0.00    +0.241 C 
ATOM     55  O   ARG A   2      17.826  72.869   5.299  0.00  0.00    -0.273 OA
ATOM     56  N   THR A   3      17.537  75.124   5.059  0.00  0.00    -0.295 N 
ATOM     57  H   THR A   3      17.225  75.888   4.426  0.00  0.00    +0.150 HD
BRANCH  54  58
ATOM     58  CA  ARG A   2      16.850  73.632   3.248  0.00  0.00    +0.149 C 
BRANCH  58  61
ATOM     59  C   GLY A   1      18.869  72.474   2.404  0.00  0.00    +0.240 C 
ATOM     60  O   GLY A   1      19.650  73.289   2.932  0.00  0.00    -0.274 OA
ATOM     61  N   ARG A   2      17.529  72.550   2.514  0.00  0.00    -0.297 N 
ATOM     62  H   ARG A   2      16.949  71.814   2.062  0.00  0.00    +0.150 HD
BRANCH  59  63
ATOM     63  CA  GLY A   1      19.402  71.286   1.624  0.00  0.00    +0.169 C 
BRANCH  63  64
ATOM     64  N   GLY A   1      20.842  71.183   1.530  0.00  0.00    -0.236 NA
ATOM     65  H   GLY A   1      21.344  70.459   2.083  0.00  0.00    +0.142 HD
ENDBRANCH  63  64
ENDBRANCH  59  63
ENDBRANCH  58  61
BRANCH  58  66
ATOM     66  CB  ARG A   2      15.340  73.384   3.316  0.00  0.00    +0.033 C 
BRANCH  66  67
ATOM     67  CG  ARG A   2      14.642  73.544   1.974  0.00  0.00    +0.045 C 
BRANCH  67  68
ATOM     68  CD  ARG A   2      13.152  73.382   2.095  0.00  0.00    +0.174 C 
BRANCH  68  69
ATOM     69  NE  ARG A   2      12.568  73.219   0.775  0.00  0.00    -0.265 N 
ATOM     70  CZ  ARG A   2      11.417  73.757   0.395  0.00  0.00    +0.342 C 
ATOM     71  NH2 ARG A   2      10.704  74.486   1.245  0.00  0.00    -0.292 N 
ATOM     72 HH21 ARG A   2      11.047  74.638   2.215  0.00  0.00    +0.255 HD
ATOM     73 HH22 ARG A   2       9.802  74.905   0.941  0.00  0.00    +0.255 HD
ATOM     74  NH1 ARG A   2      10.957  73.553  -0.830  0.00  0.00    -0.292 N 
ATOM     75 HH11 ARG A   2      10.054  73.977  -1.124  0.00  0.00    +0.255 HD
ATOM     76 HH12 ARG A   2      11.499  72.969  -1.498  0.00  0.00    +0.255 HD
ATOM     77  HE  ARG A   2      13.087  72.642   0.082  0.00  0.00    +0.259 HD
ENDBRANCH  68  69
ENDBRANCH  67  68
ENDBRANCH  66  67
ENDBRANCH  58  66
ENDBRANCH  54  58
ENDBRANCH  53  56
BRANCH  53  78
ATOM     78  CB  THR A   3      18.875  76.810   6.319  0.00  0.00    +0.137 C 
ATOM     79  CG2 THR A   3      20.087  76.704   5.422  0.00  0.00    +0.034 C 
BRANCH  78  80
ATOM     80  OG1 THR A   3      17.989  77.811   5.822  0.00  0.00    -0.382 OA
ATOM     81  HG1 THR A   3      18.468  78.676   5.765  0.00  0.00    +0.210 HD
ENDBRANCH  78  80
ENDBRANCH  53  78
ENDBRANCH  49  53
ENDBRANCH  48  51
BRANCH  48  82
ATOM     82  CB  HIS A   4      13.999  76.843   8.111  0.00  0.00    +0.076 C 
BRANCH  82  83
ATOM     83  CG  HIS A   4      12.849  76.853   9.080  0.00  0.00    +0.082 A 
ATOM     84  CD2 HIS A   4      12.855  76.943  10.430  0.00  0.00    +0.115 A 
ATOM     85  NE2 HIS A   4      11.537  76.902  10.836  0.00  0.00    -0.221 NA
ATOM     86  CE1 HIS A   4      10.790  76.814   9.736  0.00  0.00    +0.199 A 
ATOM     87  ND1 HIS A   4      11.537  76.785   8.642  0.00  0.00    -0.227 NA
ENDBRANCH  82  83
ENDBRANCH  48  82
ENDBRANCH  44  48
ENDBRANCH   1  45
BRANCH   1  88
ATOM     88  CB  GLU A   5      10.288  72.813   7.616  0.00  0.00    +0.041 C 
BRANCH  88  89
ATOM     89  CG  GLU A   5       9.256  71.982   6.892  0.00  0.00    +0.116 C 
BRANCH  89  90
ATOM     90  CD  GLU A   5       8.165  71.476   7.809  0.00  0.00    +0.365 C 
ATOM     91  OE2 GLU A   5       8.470  71.156   8.986  0.00  0.00    -0.246 OA
ATOM     92  OE1 GLU A   5       7.023  71.321   7.318  0.00  0.00    -0.246 OA
ENDBRANCH  89  90
ENDBRANCH  88  89
ENDBRANCH   1  88
TORSDOF 39
REMARK  Name = ../refined-set-2016/2xbv/2xbv_pocket.pdb
REMARK  244 active torsions:
REMARK  status: ('A' for Active; 'I' for Inactive)
REMARK    1  A    between atoms: _1  and  _5
REMARK    2  A    between atoms: _5  and  _6
REMARK    3  A    between atoms: _5  and  _8
REMARK    4  A    between atoms: _8  and  _9
REMARK    5  A    between atoms: _12  and  _14
REMARK    6  A    between atoms: _14  and  _15
REMARK    7  A    between atoms: _14  and  _17
REMARK    8  A    between atoms: _20  and  _22
REMARK    9  A    between atoms: _22  and  _23
REMARK   10  A    between atoms: _22  and  _25
REMARK   11  A    between atoms: _25  and  _26
REMARK   12  A    between atoms: _31  and  _33
REMARK   13  A    between atoms: _33  and  _34
REMARK   14  A    between atoms: _33  and  _36
REMARK   15  A    between atoms: _36  and  _37
REMARK   16  A    between atoms: _37  and  _38
REMARK   17  A    between atoms: _43  and  _45
REMARK   18  A    between atoms: _45  and  _46
REMARK   19  A    between atoms: _45  and  _48
REMARK   20  A    between atoms: _48  and  _49
REMARK   21  A    between atoms: _55  and  _57
REMARK   22  A    between atoms: _57  and  _58
REMARK   23  A    between atoms: _57  and  _60
REMARK   24  A    between atoms: _60  and  _61
REMARK   25  A    between atoms: _64  and  _66
REMARK   26  A    between atoms: _66  and  _67
REMARK   27  A    between atoms: _66  and  _69
REMARK   28  A    between atoms: _69  and  _70
REMARK   29  A    between atoms: _70  and  _71
REMARK   30  A    between atoms: _71  and  _72
REMARK   31  A    between atoms: _72  and  _73
REMARK   32  A    between atoms: _77  and  _79
REMARK   33  A    between atoms: _79  and  _80
REMARK   34  A    between atoms: _79  and  _82
REMARK   35  A    between atoms: _82  and  _83
REMARK   36  A    between atoms: _83  and  _84
REMARK   37  A    between atoms: _87  and  _89
REMARK   38  A    between atoms: _89  and  _90
REMARK   39  A    between atoms: _89  and  _92
REMARK   40  A    between atoms: _92  and  _93
REMARK   41  A    between atoms: _96  and  _98
REMARK   42  A    between atoms: _98  and  _99
REMARK   43  A    between atoms: _98  and  _101
REMARK   44  A    between atoms: _101  and  _102
REMARK   45  A    between atoms: _107  and  _108
REMARK   46  A    between atoms: _110  and  _112
REMARK   47  A    between atoms: _112  and  _113
REMARK   48  A    between atoms: _112  and  _115
REMARK   49  A    between atoms: _115  and  _116
REMARK   50  A    between atoms: _119  and  _121
REMARK   51  A    between atoms: _121  and  _122
REMARK   52  A    between atoms: _121  and  _124
REMARK   53  A    between atoms: _124  and  _125
REMARK   54  A    between atoms: _128  and  _130
REMARK   55  A    between atoms: _130  and  _131
REMARK   56  A    between atoms: _130  and  _133
REMARK   57  A    between atoms: _136  and  _138
REMARK   58  A    between atoms: _138  and  _139
REMARK   59  A    between atoms: _141  and  _143
REMARK   60  A    between atoms: _143  and  _144
REMARK   61  A    between atoms: _143  and  _146
REMARK   62  A    between atoms: _146  and  _147
REMARK   63  A    between atoms: _147  and  _148
REMARK   64  A    between atoms: _148  and  _149
REMARK   65  A    between atoms: _158  and  _160
REMARK   66  A    between atoms: _160  and  _161
REMARK   67  A    between atoms: _160  and  _163
REMARK   68  A    between atoms: _163  and  _164
REMARK   69  A    between atoms: _167  and  _169
REMARK   70  A    between atoms: _169  and  _170
REMARK   71  A    between atoms: _169  and  _172
REMARK   72  A    between atoms: _172  and  _173
REMARK   73  A    between atoms: _178  and  _180
REMARK   74  A    between atoms: _180  and  _181
REMARK   75  A    between atoms: _180  and  _183
REMARK   76  A    between atoms: _183  and  _184
REMARK   77  A    between atoms: _184  and  _185
REMARK   78  A    between atoms: _188  and  _190
REMARK   79  A    between atoms: _190  and  _191
REMARK   80  A    between atoms: _190  and  _193
REMARK   81  A    between atoms: _193  and  _194
REMARK   82  A    between atoms: _194  and  _195
REMARK   83  A    between atoms: _195  and  _196
REMARK   84  A    between atoms: _196  and  _197
REMARK   85  A    between atoms: _201  and  _203
REMARK   86  A    between atoms: _203  and  _204
REMARK   87  A    between atoms: _206  and  _208
REMARK   88  A    between atoms: _208  and  _209
REMARK   89  A    between atoms: _208  and  _211
REMARK   90  A    between atoms: _212  and  _213
REMARK   91  A    between atoms: _216  and  _218
REMARK   92  A    between atoms: _218  and  _219
REMARK   93  A    between atoms: _218  and  _221
REMARK   94  A    between atoms: _221  and  _222
REMARK   95  A    between atoms: _222  and  _223
REMARK   96  A    between atoms: _228  and  _230
REMARK   97  A    between atoms: _230  and  _231
REMARK   98  A    between atoms: _230  and  _233
REMARK   99  A    between atoms: _233  and  _234
REMARK  100  A    between atoms: _237  and  _239
REMARK  101  A    between atoms: _239  and  _240
REMARK  102  A    between atoms: _239  and  _242
REMARK  103  A    between atoms: _245  and  _247
REMARK  104  A    between atoms: _247  and  _248
REMARK  105  A    between atoms: _247  and  _250
REMARK  106  A    between atoms: _250  and  _251
REMARK  107  A    between atoms: _253  and  _255
REMARK  108  A    between atoms: _255  and  _256
REMARK  109  A    between atoms: _255  and  _258
REMARK  110  A    between atoms: _258  and  _259
REMARK  111  A    between atoms: _261  and  _263
REMARK  112  A    between atoms: _263  and  _264
REMARK  113  A    between atoms: _263  and  _266
REMARK  114  A    between atoms: _266  and  _267
REMARK  115  A    between atoms: _273  and  _275
REMARK  116  A    between atoms: _275  and  _276
REMARK  117  A    between atoms: _275  and  _278
REMARK  118  A    between atoms: _278  and  _279
REMARK  119  A    between atoms: _282  and  _284
REMARK  120  A    between atoms: _284  and  _285
REMARK  121  A    between atoms: _284  and  _287
REMARK  122  A    between atoms: _287  and  _288
REMARK  123  A    between atoms: _291  and  _293
REMARK  124  A    between atoms: _293  and  _294
REMARK  125  A    between atoms: _293  and  _296
REMARK  126  A    between atoms: _296  and  _297
REMARK  127  A    between atoms: _300  and  _302
REMARK  128  A    between atoms: _302  and  _303
REMARK  129  A    between atoms: _302  and  _305
REMARK  130  A    between atoms: _305  and  _306
REMARK  131  A    between atoms: _306  and  _307
REMARK  132  A    between atoms: _309  and  _311
REMARK  133  A    between atoms: _311  and  _312
REMARK  134  A    between atoms: _311  and  _314
REMARK  135  A    between atoms: _314  and  _315
REMARK  136  A    between atoms: _321  and  _323
REMARK  137  A    between atoms: _323  and  _324
REMARK  138  A    between atoms: _323  and  _326
REMARK  139  A    between atoms: _328  and  _330
REMARK  140  A    between atoms: _330  and  _331
REMARK  141  A    between atoms: _334  and  _336
REMARK  142  A    between atoms: _336  and  _337
REMARK  143  A    between atoms: _339  and  _341
REMARK  144  A    between atoms: _341  and  _342
REMARK  145  A    between atoms: _341  and  _344
REMARK  146  A    between atoms: _344  and  _345
REMARK  147  A    between atoms: _345  and  _346
REMARK  148  A    between atoms: _349  and  _351
REMARK  149  A    between atoms: _351  and  _352
REMARK  150  A    between atoms: _351  and  _354
REMARK  151  A    between atoms: _354  and  _355
REMARK  152  A    between atoms: _358  and  _360
REMARK  153  A    between atoms: _360  and  _361
REMARK  154  A    between atoms: _364  and  _366
REMARK  155  A    between atoms: _366  and  _367
REMARK  156  A    between atoms: _366  and  _369
REMARK  157  A    between atoms: _369  and  _370
REMARK  158  A    between atoms: _370  and  _493
REMARK  159  A    between atoms: _371  and  _373
REMARK  160  A    between atoms: _373  and  _374
REMARK  161  A    between atoms: _373  and  _376
REMARK  162  A    between atoms: _376  and  _377
REMARK  163  A    between atoms: _377  and  _378
REMARK  164  A    between atoms: _383  and  _385
REMARK  165  A    between atoms: _385  and  _386
REMARK  166  A    between atoms: _388  and  _390
REMARK  167  A    between atoms: _390  and  _391
REMARK  168  A    between atoms: _390  and  _393
REMARK  169  A    between atoms: _393  and  _394
REMARK  170  A    between atoms: _397  and  _399
REMARK  171  A    between atoms: _399  and  _400
REMARK  172  A    between atoms: _399  and  _402
REMARK  173  A    between atoms: _402  and  _403
REMARK  174  A    between atoms: _405  and  _407
REMARK  175  A    between atoms: _407  and  _408
REMARK  176  A    between atoms: _410  and  _412
REMARK  177  A    between atoms: _412  and  _413
REMARK  178  A    between atoms: _415  and  _417
REMARK  179  A    between atoms: _417  and  _418
REMARK  180  A    between atoms: _417  and  _420
REMARK  181  A    between atoms: _420  and  _421
REMARK  182  A    between atoms: _426  and  _428
REMARK  183  A    between atoms: _428  and  _429
REMARK  184  A    between atoms: _428  and  _431
REMARK  185  A    between atoms: _431  and  _432
REMARK  186  A    between atoms: _435  and  _437
REMARK  187  A    between atoms: _437  and  _438
REMARK  188  A    between atoms: _437  and  _440
REMARK  189  A    between atoms: _443  and  _445
REMARK  190  A    between atoms: _445  and  _446
REMARK  191  A    between atoms: _445  and  _448
REMARK  192  A    between atoms: _448  and  _449
REMARK  193  A    between atoms: _451  and  _453
REMARK  194  A    between atoms: _453  and  _454
REMARK  195  A    between atoms: _453  and  _456
REMARK  196  A    between atoms: _456  and  _457
REMARK  197  A    between atoms: _467  and  _469
REMARK  198  A    between atoms: _469  and  _470
REMARK  199  A    between atoms: _472  and  _474
REMARK  200  A    between atoms: _474  and  _475
REMARK  201  A    between atoms: _474  and  _477
REMARK  202  A    between atoms: _477  and  _478
REMARK  203  A    between atoms: _478  and  _479
REMARK  204  A    between atoms: _482  and  _484
REMARK  205  A    between atoms: _484  and  _485
REMARK  206  A    between atoms: _487  and  _489
REMARK  207  A    between atoms: _489  and  _490
REMARK  208  A    between atoms: _489  and  _492
REMARK  209  A    between atoms: _492  and  _493
REMARK  210  A    between atoms: _494  and  _496
REMARK  211  A    between atoms: _496  and  _497
REMARK  212  A    between atoms: _500  and  _502
REMARK  213  A    between atoms: _502  and  _503
REMARK  214  A    between atoms: _502  and  _505
REMARK  215  A    between atoms: _505  and  _506
REMARK  216  A    between atoms: _506  and  _507
REMARK  217  A    between atoms: _507  and  _508
REMARK  218  A    between atoms: _517  and  _519
REMARK  219  A    between atoms: _519  and  _520
REMARK  220  A    between atoms: _519  and  _522
REMARK  221  A    between atoms: _522  and  _523
REMARK  222  A    between atoms: _523  and  _524
REMARK  223  A    between atoms: _524  and  _525
REMARK  224  A    between atoms: _525  and  _526
REMARK  225  A    between atoms: _530  and  _532
REMARK  226  A    between atoms: _532  and  _533
REMARK  227  A    between atoms: _532  and  _535
REMARK  228  A    between atoms: _535  and  _536
REMARK  229  A    between atoms: _541  and  _542
REMARK  230  A    between atoms: _544  and  _546
REMARK  231  A    between atoms: _546  and  _547
REMARK  232  A    between atoms: _549  and  _551
REMARK  233  A    between atoms: _551  and  _552
REMARK  234  A    between atoms: _551  and  _554
REMARK  235  A    between atoms: _554  and  _555
REMARK  236  A    between atoms: _558  and  _560
REMARK  237  A    between atoms: _560  and  _561
REMARK  238  A    between atoms: _560  and  _563
REMARK  239  A    between atoms: _563  and  _564
REMARK  240  A    between atoms: _569  and  _570
REMARK  241  A    between atoms: _572  and  _574
REMARK  242  A    between atoms: _574  and  _575
REMARK  243  A    between atoms: _574  and  _577
REMARK  244  A    between atoms: _577  and  _578
REMARK                            x       y       z     vdW  Elec       q    Type
REMARK                         _______ _______ _______ _____ _____    ______ ____
ROOT
ATOM      1  CA  LEU A   1      25.231  67.982  11.416  0.00  0.00    +0.133 C 
ENDROOT
BRANCH   1   2
ATOM      2  N   LEU A   1      25.923  68.028  10.132  0.00  0.00    -0.239 NA
ATOM      3  H   LEU A   1      26.100  67.145   9.611  0.00  0.00    +0.142 HD
ENDBRANCH   1   2
BRANCH   1   4
ATOM      4  C   LEU A   1      25.444  66.660  12.062  0.00  0.00    +0.224 C 
ATOM      5  O   LEU A   1      25.258  65.632  11.431  0.00  0.00    -0.287 OA
ENDBRANCH   1   4
BRANCH   1   6
ATOM      6  CB  LEU A   1      23.730  68.282  11.204  0.00  0.00    +0.025 C 
BRANCH   6   7
ATOM      7  CG  LEU A   1      22.773  68.016  12.380  0.00  0.00    +0.002 C 
ATOM      8  CD2 LEU A   1      22.997  69.008  13.497  0.00  0.00    +0.000 C 
ATOM      9  CD1 LEU A   1      21.349  68.083  11.922  0.00  0.00    +0.000 C 
ENDBRANCH   6   7
ENDBRANCH   1   6
TORSDOF 4
REMARK  Name = ../refined-set-2016/2xbv/2xbv_pocket.pdb
REMARK  244 active torsions:
REMARK  status: ('A' for Active; 'I' for Inactive)
REMARK    1  A    between atoms: _1  and  _5
REMARK    2  A    between atoms: _5  and  _6
REMARK    3  A    between atoms: _5  and  _8
REMARK    4  A    between atoms: _8  and  _9
REMARK    5  A    between atoms: _12  and  _14
REMARK    6  A    between atoms: _14  and  _15
REMARK    7  A    between atoms: _14  and  _17
REMARK    8  A    between atoms: _20  and  _22
REMARK    9  A    between atoms: _22  and  _23
REMARK   10  A    between atoms: _22  and  _25
REMARK   11  A    between atoms: _25  and  _26
REMARK   12  A    between atoms: _31  and  _33
REMARK   13  A    between atoms: _33  and  _34
REMARK   14  A    between atoms: _33  and  _36
REMARK   15  A    between atoms: _36  and  _37
REMARK   16  A    between atoms: _37  and  _38
REMARK   17  A    between atoms: _43  and  _45
REMARK   18  A    between atoms: _45  and  _46
REMARK   19  A    between atoms: _45  and  _48
REMARK   20  A    between atoms: _48  and  _49
REMARK   21  A    between atoms: _55  and  _57
REMARK   22  A    between atoms: _57  and  _58
REMARK   23  A    between atoms: _57  and  _60
REMARK   24  A    between atoms: _60  and  _61
REMARK   25  A    between atoms: _64  and  _66
REMARK   26  A    between atoms: _66  and  _67
REMARK   27  A    between atoms: _66  and  _69
REMARK   28  A    between atoms: _69  and  _70
REMARK   29  A    between atoms: _70  and  _71
REMARK   30  A    between atoms: _71  and  _72
REMARK   31  A    between atoms: _72  and  _73
REMARK   32  A    between atoms: _77  and  _79
REMARK   33  A    between atoms: _79  and  _80
REMARK   34  A    between atoms: _79  and  _82
REMARK   35  A    between atoms: _82  and  _83
REMARK   36  A    between atoms: _83  and  _84
REMARK   37  A    between atoms: _87  and  _89
REMARK   38  A    between atoms: _89  and  _90
REMARK   39  A    between atoms: _89  and  _92
REMARK   40  A    between atoms: _92  and  _93
REMARK   41  A    between atoms: _96  and  _98
REMARK   42  A    between atoms: _98  and  _99
REMARK   43  A    between atoms: _98  and  _101
REMARK   44  A    between atoms: _101  and  _102
REMARK   45  A    between atoms: _107  and  _108
REMARK   46  A    between atoms: _110  and  _112
REMARK   47  A    between atoms: _112  and  _113
REMARK   48  A    between atoms: _112  and  _115
REMARK   49  A    between atoms: _115  and  _116
REMARK   50  A    between atoms: _119  and  _121
REMARK   51  A    between atoms: _121  and  _122
REMARK   52  A    between atoms: _121  and  _124
REMARK   53  A    between atoms: _124  and  _125
REMARK   54  A    between atoms: _128  and  _130
REMARK   55  A    between atoms: _130  and  _131
REMARK   56  A    between atoms: _130  and  _133
REMARK   57  A    between atoms: _136  and  _138
REMARK   58  A    between atoms: _138  and  _139
REMARK   59  A    between atoms: _141  and  _143
REMARK   60  A    between atoms: _143  and  _144
REMARK   61  A    between atoms: _143  and  _146
REMARK   62  A    between atoms: _146  and  _147
REMARK   63  A    between atoms: _147  and  _148
REMARK   64  A    between atoms: _148  and  _149
REMARK   65  A    between atoms: _158  and  _160
REMARK   66  A    between atoms: _160  and  _161
REMARK   67  A    between atoms: _160  and  _163
REMARK   68  A    between atoms: _163  and  _164
REMARK   69  A    between atoms: _167  and  _169
REMARK   70  A    between atoms: _169  and  _170
REMARK   71  A    between atoms: _169  and  _172
REMARK   72  A    between atoms: _172  and  _173
REMARK   73  A    between atoms: _178  and  _180
REMARK   74  A    between atoms: _180  and  _181
REMARK   75  A    between atoms: _180  and  _183
REMARK   76  A    between atoms: _183  and  _184
REMARK   77  A    between atoms: _184  and  _185
REMARK   78  A    between atoms: _188  and  _190
REMARK   79  A    between atoms: _190  and  _191
REMARK   80  A    between atoms: _190  and  _193
REMARK   81  A    between atoms: _193  and  _194
REMARK   82  A    between atoms: _194  and  _195
REMARK   83  A    between atoms: _195  and  _196
REMARK   84  A    between atoms: _196  and  _197
REMARK   85  A    between atoms: _201  and  _203
REMARK   86  A    between atoms: _203  and  _204
REMARK   87  A    between atoms: _206  and  _208
REMARK   88  A    between atoms: _208  and  _209
REMARK   89  A    between atoms: _208  and  _211
REMARK   90  A    between atoms: _212  and  _213
REMARK   91  A    between atoms: _216  and  _218
REMARK   92  A    between atoms: _218  and  _219
REMARK   93  A    between atoms: _218  and  _221
REMARK   94  A    between atoms: _221  and  _222
REMARK   95  A    between atoms: _222  and  _223
REMARK   96  A    between atoms: _228  and  _230
REMARK   97  A    between atoms: _230  and  _231
REMARK   98  A    between atoms: _230  and  _233
REMARK   99  A    between atoms: _233  and  _234
REMARK  100  A    between atoms: _237  and  _239
REMARK  101  A    between atoms: _239  and  _240
REMARK  102  A    between atoms: _239  and  _242
REMARK  103  A    between atoms: _245  and  _247
REMARK  104  A    between atoms: _247  and  _248
REMARK  105  A    between atoms: _247  and  _250
REMARK  106  A    between atoms: _250  and  _251
REMARK  107  A    between atoms: _253  and  _255
REMARK  108  A    between atoms: _255  and  _256
REMARK  109  A    between atoms: _255  and  _258
REMARK  110  A    between atoms: _258  and  _259
REMARK  111  A    between atoms: _261  and  _263
REMARK  112  A    between atoms: _263  and  _264
REMARK  113  A    between atoms: _263  and  _266
REMARK  114  A    between atoms: _266  and  _267
REMARK  115  A    between atoms: _273  and  _275
REMARK  116  A    between atoms: _275  and  _276
REMARK  117  A    between atoms: _275  and  _278
REMARK  118  A    between atoms: _278  and  _279
REMARK  119  A    between atoms: _282  and  _284
REMARK  120  A    between atoms: _284  and  _285
REMARK  121  A    between atoms: _284  and  _287
REMARK  122  A    between atoms: _287  and  _288
REMARK  123  A    between atoms: _291  and  _293
REMARK  124  A    between atoms: _293  and  _294
REMARK  125  A    between atoms: _293  and  _296
REMARK  126  A    between atoms: _296  and  _297
REMARK  127  A    between atoms: _300  and  _302
REMARK  128  A    between atoms: _302  and  _303
REMARK  129  A    between atoms: _302  and  _305
REMARK  130  A    between atoms: _305  and  _306
REMARK  131  A    between atoms: _306  and  _307
REMARK  132  A    between atoms: _309  and  _311
REMARK  133  A    between atoms: _311  and  _312
REMARK  134  A    between atoms: _311  and  _314
REMARK  135  A    between atoms: _314  and  _315
REMARK  136  A    between atoms: _321  and  _323
REMARK  137  A    between atoms: _323  and  _324
REMARK  138  A    between atoms: _323  and  _326
REMARK  139  A    between atoms: _328  and  _330
REMARK  140  A    between atoms: _330  and  _331
REMARK  141  A    between atoms: _334  and  _336
REMARK  142  A    between atoms: _336  and  _337
REMARK  143  A    between atoms: _339  and  _341
REMARK  144  A    between atoms: _341  and  _342
REMARK  145  A    between atoms: _341  and  _344
REMARK  146  A    between atoms: _344  and  _345
REMARK  147  A    between atoms: _345  and  _346
REMARK  148  A    between atoms: _349  and  _351
REMARK  149  A    between atoms: _351  and  _352
REMARK  150  A    between atoms: _351  and  _354
REMARK  151  A    between atoms: _354  and  _355
REMARK  152  A    between atoms: _358  and  _360
REMARK  153  A    between atoms: _360  and  _361
REMARK  154  A    between atoms: _364  and  _366
REMARK  155  A    between atoms: _366  and  _367
REMARK  156  A    between atoms: _366  and  _369
REMARK  157  A    between atoms: _369  and  _370
REMARK  158  A    between atoms: _370  and  _493
REMARK  159  A    between atoms: _371  and  _373
REMARK  160  A    between atoms: _373  and  _374
REMARK  161  A    between atoms: _373  and  _376
REMARK  162  A    between atoms: _376  and  _377
REMARK  163  A    between atoms: _377  and  _378
REMARK  164  A    between atoms: _383  and  _385
REMARK  165  A    between atoms: _385  and  _386
REMARK  166  A    between atoms: _388  and  _390
REMARK  167  A    between atoms: _390  and  _391
REMARK  168  A    between atoms: _390  and  _393
REMARK  169  A    between atoms: _393  and  _394
REMARK  170  A    between atoms: _397  and  _399
REMARK  171  A    between atoms: _399  and  _400
REMARK  172  A    between atoms: _399  and  _402
REMARK  173  A    between atoms: _402  and  _403
REMARK  174  A    between atoms: _405  and  _407
REMARK  175  A    between atoms: _407  and  _408
REMARK  176  A    between atoms: _410  and  _412
REMARK  177  A    between atoms: _412  and  _413
REMARK  178  A    between atoms: _415  and  _417
REMARK  179  A    between atoms: _417  and  _418
REMARK  180  A    between atoms: _417  and  _420
REMARK  181  A    between atoms: _420  and  _421
REMARK  182  A    between atoms: _426  and  _428
REMARK  183  A    between atoms: _428  and  _429
REMARK  184  A    between atoms: _428  and  _431
REMARK  185  A    between atoms: _431  and  _432
REMARK  186  A    between atoms: _435  and  _437
REMARK  187  A    between atoms: _437  and  _438
REMARK  188  A    between atoms: _437  and  _440
REMARK  189  A    between atoms: _443  and  _445
REMARK  190  A    between atoms: _445  and  _446
REMARK  191  A    between atoms: _445  and  _448
REMARK  192  A    between atoms: _448  and  _449
REMARK  193  A    between atoms: _451  and  _453
REMARK  194  A    between atoms: _453  and  _454
REMARK  195  A    between atoms: _453  and  _456
REMARK  196  A    between atoms: _456  and  _457
REMARK  197  A    between atoms: _467  and  _469
REMARK  198  A    between atoms: _469  and  _470
REMARK  199  A    between atoms: _472  and  _474
REMARK  200  A    between atoms: _474  and  _475
REMARK  201  A    between atoms: _474  and  _477
REMARK  202  A    between atoms: _477  and  _478
REMARK  203  A    between atoms: _478  and  _479
REMARK  204  A    between atoms: _482  and  _484
REMARK  205  A    between atoms: _484  and  _485
REMARK  206  A    between atoms: _487  and  _489
REMARK  207  A    between atoms: _489  and  _490
REMARK  208  A    between atoms: _489  and  _492
REMARK  209  A    between atoms: _492  and  _493
REMARK  210  A    between atoms: _494  and  _496
REMARK  211  A    between atoms: _496  and  _497
REMARK  212  A    between atoms: _500  and  _502
REMARK  213  A    between atoms: _502  and  _503
REMARK  214  A    between atoms: _502  and  _505
REMARK  215  A    between atoms: _505  and  _506
REMARK  216  A    between atoms: _506  and  _507
REMARK  217  A    between atoms: _507  and  _508
REMARK  218  A    between atoms: _517  and  _519
REMARK  219  A    between atoms: _519  and  _520
REMARK  220  A    between atoms: _519  and  _522
REMARK  221  A    between atoms: _522  and  _523
REMARK  222  A    between atoms: _523  and  _524
REMARK  223  A    between atoms: _524  and  _525
REMARK  224  A    between atoms: _525  and  _526
REMARK  225  A    between atoms: _530  and  _532
REMARK  226  A    between atoms: _532  and  _533
REMARK  227  A    between atoms: _532  and  _535
REMARK  228  A    between atoms: _535  and  _536
REMARK  229  A    between atoms: _541  and  _542
REMARK  230  A    between atoms: _544  and  _546
REMARK  231  A    between atoms: _546  and  _547
REMARK  232  A    between atoms: _549  and  _551
REMARK  233  A    between atoms: _551  and  _552
REMARK  234  A    between atoms: _551  and  _554
REMARK  235  A    between atoms: _554  and  _555
REMARK  236  A    between atoms: _558  and  _560
REMARK  237  A    between atoms: _560  and  _561
REMARK  238  A    between atoms: _560  and  _563
REMARK  239  A    between atoms: _563  and  _564
REMARK  240  A    between atoms: _569  and  _570
REMARK  241  A    between atoms: _572  and  _574
REMARK  242  A    between atoms: _574  and  _575
REMARK  243  A    between atoms: _574  and  _577
REMARK  244  A    between atoms: _577  and  _578
REMARK                            x       y       z     vdW  Elec       q    Type
REMARK                         _______ _______ _______ _____ _____    ______ ____
ROOT
ATOM      1  CA  VAL A   1      22.879  63.238  14.545  0.00  0.00    +0.133 C 
ENDROOT
BRANCH   1   2
ATOM      2  CB  VAL A   1      21.887  63.070  13.325  0.00  0.00    +0.023 C 
ATOM      3  CG2 VAL A   1      21.342  64.412  12.806  0.00  0.00    +0.002 C 
ATOM      4  CG1 VAL A   1      22.503  62.234  12.192  0.00  0.00    +0.002 C 
ENDBRANCH   1   2
BRANCH   1   5
ATOM      5  N   VAL A   1      24.187  63.762  14.168  0.00  0.00    -0.239 NA
ATOM      6  H   VAL A   1      24.831  63.165  13.612  0.00  0.00    +0.142 HD
ENDBRANCH   1   5
BRANCH   1   7
ATOM      7  C   VAL A   1      22.987  61.940  15.330  0.00  0.00    +0.224 C 
ATOM      8  O   VAL A   1      23.579  60.945  14.894  0.00  0.00    -0.287 OA
ENDBRANCH   1   7
TORSDOF 3
REMARK  Name = ../refined-set-2016/2xbv/2xbv_pocket.pdb
REMARK  244 active torsions:
REMARK  status: ('A' for Active; 'I' for Inactive)
REMARK    1  A    between atoms: _1  and  _5
REMARK    2  A    between atoms: _5  and  _6
REMARK    3  A    between atoms: _5  and  _8
REMARK    4  A    between atoms: _8  and  _9
REMARK    5  A    between atoms: _12  and  _14
REMARK    6  A    between atoms: _14  and  _15
REMARK    7  A    between atoms: _14  and  _17
REMARK    8  A    between atoms: _20  and  _22
REMARK    9  A    between atoms: _22  and  _23
REMARK   10  A    between atoms: _22  and  _25
REMARK   11  A    between atoms: _25  and  _26
REMARK   12  A    between atoms: _31  and  _33
REMARK   13  A    between atoms: _33  and  _34
REMARK   14  A    between atoms: _33  and  _36
REMARK   15  A    between atoms: _36  and  _37
REMARK   16  A    between atoms: _37  and  _38
REMARK   17  A    between atoms: _43  and  _45
REMARK   18  A    between atoms: _45  and  _46
REMARK   19  A    between atoms: _45  and  _48
REMARK   20  A    between atoms: _48  and  _49
REMARK   21  A    between atoms: _55  and  _57
REMARK   22  A    between atoms: _57  and  _58
REMARK   23  A    between atoms: _57  and  _60
REMARK   24  A    between atoms: _60  and  _61
REMARK   25  A    between atoms: _64  and  _66
REMARK   26  A    between atoms: _66  and  _67
REMARK   27  A    between atoms: _66  and  _69
REMARK   28  A    between atoms: _69  and  _70
REMARK   29  A    between atoms: _70  and  _71
REMARK   30  A    between atoms: _71  and  _72
REMARK   31  A    between atoms: _72  and  _73
REMARK   32  A    between atoms: _77  and  _79
REMARK   33  A    between atoms: _79  and  _80
REMARK   34  A    between atoms: _79  and  _82
REMARK   35  A    between atoms: _82  and  _83
REMARK   36  A    between atoms: _83  and  _84
REMARK   37  A    between atoms: _87  and  _89
REMARK   38  A    between atoms: _89  and  _90
REMARK   39  A    between atoms: _89  and  _92
REMARK   40  A    between atoms: _92  and  _93
REMARK   41  A    between atoms: _96  and  _98
REMARK   42  A    between atoms: _98  and  _99
REMARK   43  A    between atoms: _98  and  _101
REMARK   44  A    between atoms: _101  and  _102
REMARK   45  A    between atoms: _107  and  _108
REMARK   46  A    between atoms: _110  and  _112
REMARK   47  A    between atoms: _112  and  _113
REMARK   48  A    between atoms: _112  and  _115
REMARK   49  A    between atoms: _115  and  _116
REMARK   50  A    between atoms: _119  and  _121
REMARK   51  A    between atoms: _121  and  _122
REMARK   52  A    between atoms: _121  and  _124
REMARK   53  A    between atoms: _124  and  _125
REMARK   54  A    between atoms: _128  and  _130
REMARK   55  A    between atoms: _130  and  _131
REMARK   56  A    between atoms: _130  and  _133
REMARK   57  A    between atoms: _136  and  _138
REMARK   58  A    between atoms: _138  and  _139
REMARK   59  A    between atoms: _141  and  _143
REMARK   60  A    between atoms: _143  and  _144
REMARK   61  A    between atoms: _143  and  _146
REMARK   62  A    between atoms: _146  and  _147
REMARK   63  A    between atoms: _147  and  _148
REMARK   64  A    between atoms: _148  and  _149
REMARK   65  A    between atoms: _158  and  _160
REMARK   66  A    between atoms: _160  and  _161
REMARK   67  A    between atoms: _160  and  _163
REMARK   68  A    between atoms: _163  and  _164
REMARK   69  A    between atoms: _167  and  _169
REMARK   70  A    between atoms: _169  and  _170
REMARK   71  A    between atoms: _169  and  _172
REMARK   72  A    between atoms: _172  and  _173
REMARK   73  A    between atoms: _178  and  _180
REMARK   74  A    between atoms: _180  and  _181
REMARK   75  A    between atoms: _180  and  _183
REMARK   76  A    between atoms: _183  and  _184
REMARK   77  A    between atoms: _184  and  _185
REMARK   78  A    between atoms: _188  and  _190
REMARK   79  A    between atoms: _190  and  _191
REMARK   80  A    between atoms: _190  and  _193
REMARK   81  A    between atoms: _193  and  _194
REMARK   82  A    between atoms: _194  and  _195
REMARK   83  A    between atoms: _195  and  _196
REMARK   84  A    between atoms: _196  and  _197
REMARK   85  A    between atoms: _201  and  _203
REMARK   86  A    between atoms: _203  and  _204
REMARK   87  A    between atoms: _206  and  _208
REMARK   88  A    between atoms: _208  and  _209
REMARK   89  A    between atoms: _208  and  _211
REMARK   90  A    between atoms: _212  and  _213
REMARK   91  A    between atoms: _216  and  _218
REMARK   92  A    between atoms: _218  and  _219
REMARK   93  A    between atoms: _218  and  _221
REMARK   94  A    between atoms: _221  and  _222
REMARK   95  A    between atoms: _222  and  _223
REMARK   96  A    between atoms: _228  and  _230
REMARK   97  A    between atoms: _230  and  _231
REMARK   98  A    between atoms: _230  and  _233
REMARK   99  A    between atoms: _233  and  _234
REMARK  100  A    between atoms: _237  and  _239
REMARK  101  A    between atoms: _239  and  _240
REMARK  102  A    between atoms: _239  and  _242
REMARK  103  A    between atoms: _245  and  _247
REMARK  104  A    between atoms: _247  and  _248
REMARK  105  A    between atoms: _247  and  _250
REMARK  106  A    between atoms: _250  and  _251
REMARK  107  A    between atoms: _253  and  _255
REMARK  108  A    between atoms: _255  and  _256
REMARK  109  A    between atoms: _255  and  _258
REMARK  110  A    between atoms: _258  and  _259
REMARK  111  A    between atoms: _261  and  _263
REMARK  112  A    between atoms: _263  and  _264
REMARK  113  A    between atoms: _263  and  _266
REMARK  114  A    between atoms: _266  and  _267
REMARK  115  A    between atoms: _273  and  _275
REMARK  116  A    between atoms: _275  and  _276
REMARK  117  A    between atoms: _275  and  _278
REMARK  118  A    between atoms: _278  and  _279
REMARK  119  A    between atoms: _282  and  _284
REMARK  120  A    between atoms: _284  and  _285
REMARK  121  A    between atoms: _284  and  _287
REMARK  122  A    between atoms: _287  and  _288
REMARK  123  A    between atoms: _291  and  _293
REMARK  124  A    between atoms: _293  and  _294
REMARK  125  A    between atoms: _293  and  _296
REMARK  126  A    between atoms: _296  and  _297
REMARK  127  A    between atoms: _300  and  _302
REMARK  128  A    between atoms: _302  and  _303
REMARK  129  A    between atoms: _302  and  _305
REMARK  130  A    between atoms: _305  and  _306
REMARK  131  A    between atoms: _306  and  _307
REMARK  132  A    between atoms: _309  and  _311
REMARK  133  A    between atoms: _311  and  _312
REMARK  134  A    between atoms: _311  and  _314
REMARK  135  A    between atoms: _314  and  _315
REMARK  136  A    between atoms: _321  and  _323
REMARK  137  A    between atoms: _323  and  _324
REMARK  138  A    between atoms: _323  and  _326
REMARK  139  A    between atoms: _328  and  _330
REMARK  140  A    between atoms: _330  and  _331
REMARK  141  A    between atoms: _334  and  _336
REMARK  142  A    between atoms: _336  and  _337
REMARK  143  A    between atoms: _339  and  _341
REMARK  144  A    between atoms: _341  and  _342
REMARK  145  A    between atoms: _341  and  _344
REMARK  146  A    between atoms: _344  and  _345
REMARK  147  A    between atoms: _345  and  _346
REMARK  148  A    between atoms: _349  and  _351
REMARK  149  A    between atoms: _351  and  _352
REMARK  150  A    between atoms: _351  and  _354
REMARK  151  A    between atoms: _354  and  _355
REMARK  152  A    between atoms: _358  and  _360
REMARK  153  A    between atoms: _360  and  _361
REMARK  154  A    between atoms: _364  and  _366
REMARK  155  A    between atoms: _366  and  _367
REMARK  156  A    between atoms: _366  and  _369
REMARK  157  A    between atoms: _369  and  _370
REMARK  158  A    between atoms: _370  and  _493
REMARK  159  A    between atoms: _371  and  _373
REMARK  160  A    between atoms: _373  and  _374
REMARK  161  A    between atoms: _373  and  _376
REMARK  162  A    between atoms: _376  and  _377
REMARK  163  A    between atoms: _377  and  _378
REMARK  164  A    between atoms: _383  and  _385
REMARK  165  A    between atoms: _385  and  _386
REMARK  166  A    between atoms: _388  and  _390
REMARK  167  A    between atoms: _390  and  _391
REMARK  168  A    between atoms: _390  and  _393
REMARK  169  A    between atoms: _393  and  _394
REMARK  170  A    between atoms: _397  and  _399
REMARK  171  A    between atoms: _399  and  _400
REMARK  172  A    between atoms: _399  and  _402
REMARK  173  A    between atoms: _402  and  _403
REMARK  174  A    between atoms: _405  and  _407
REMARK  175  A    between atoms: _407  and  _408
REMARK  176  A    between atoms: _410  and  _412
REMARK  177  A    between atoms: _412  and  _413
REMARK  178  A    between atoms: _415  and  _417
REMARK  179  A    between atoms: _417  and  _418
REMARK  180  A    between atoms: _417  and  _420
REMARK  181  A    between atoms: _420  and  _421
REMARK  182  A    between atoms: _426  and  _428
REMARK  183  A    between atoms: _428  and  _429
REMARK  184  A    between atoms: _428  and  _431
REMARK  185  A    between atoms: _431  and  _432
REMARK  186  A    between atoms: _435  and  _437
REMARK  187  A    between atoms: _437  and  _438
REMARK  188  A    between atoms: _437  and  _440
REMARK  189  A    between atoms: _443  and  _445
REMARK  190  A    between atoms: _445  and  _446
REMARK  191  A    between atoms: _445  and  _448
REMARK  192  A    between atoms: _448  and  _449
REMARK  193  A    between atoms: _451  and  _453
REMARK  194  A    between atoms: _453  and  _454
REMARK  195  A    between atoms: _453  and  _456
REMARK  196  A    between atoms: _456  and  _457
REMARK  197  A    between atoms: _467  and  _469
REMARK  198  A    between atoms: _469  and  _470
REMARK  199  A    between atoms: _472  and  _474
REMARK  200  A    between atoms: _474  and  _475
REMARK  201  A    between atoms: _474  and  _477
REMARK  202  A    between atoms: _477  and  _478
REMARK  203  A    between atoms: _478  and  _479
REMARK  204  A    between atoms: _482  and  _484
REMARK  205  A    between atoms: _484  and  _485
REMARK  206  A    between atoms: _487  and  _489
REMARK  207  A    between atoms: _489  and  _490
REMARK  208  A    between atoms: _489  and  _492
REMARK  209  A    between atoms: _492  and  _493
REMARK  210  A    between atoms: _494  and  _496
REMARK  211  A    between atoms: _496  and  _497
REMARK  212  A    between atoms: _500  and  _502
REMARK  213  A    between atoms: _502  and  _503
REMARK  214  A    between atoms: _502  and  _505
REMARK  215  A    between atoms: _505  and  _506
REMARK  216  A    between atoms: _506  and  _507
REMARK  217  A    between atoms: _507  and  _508
REMARK  218  A    between atoms: _517  and  _519
REMARK  219  A    between atoms: _519  and  _520
REMARK  220  A    between atoms: _519  and  _522
REMARK  221  A    between atoms: _522  and  _523
REMARK  222  A    between atoms: _523  and  _524
REMARK  223  A    between atoms: _524  and  _525
REMARK  224  A    between atoms: _525  and  _526
REMARK  225  A    between atoms: _530  and  _532
REMARK  226  A    between atoms: _532  and  _533
REMARK  227  A    between atoms: _532  and  _535
REMARK  228  A    between atoms: _535  and  _536
REMARK  229  A    between atoms: _541  and  _542
REMARK  230  A    between atoms: _544  and  _546
REMARK  231  A    between atoms: _546  and  _547
REMARK  232  A    between atoms: _549  and  _551
REMARK  233  A    between atoms: _551  and  _552
REMARK  234  A    between atoms: _551  and  _554
REMARK  235  A    between atoms: _554  and  _555
REMARK  236  A    between atoms: _558  and  _560
REMARK  237  A    between atoms: _560  and  _561
REMARK  238  A    between atoms: _560  and  _563
REMARK  239  A    between atoms: _563  and  _564
REMARK  240  A    between atoms: _569  and  _570
REMARK  241  A    between atoms: _572  and  _574
REMARK  242  A    between atoms: _574  and  _575
REMARK  243  A    between atoms: _574  and  _577
REMARK  244  A    between atoms: _577  and  _578
REMARK                            x       y       z     vdW  Elec       q    Type
REMARK                         _______ _______ _______ _____ _____    ______ ____
ROOT
ATOM      1  C   PHE A   3       5.383  54.809   8.818  0.00  0.00    +0.241 C 
ATOM      2  O   PHE A   3       6.132  54.973   9.793  0.00  0.00    -0.273 OA
ATOM      3  N   ILE A   4       5.239  53.663   8.154  0.00  0.00    -0.297 N 
ATOM      4  H   ILE A   4       4.591  53.635   7.341  0.00  0.00    +0.150 HD
ENDROOT
BRANCH   3   5
ATOM      5  CA  ILE A   4       5.966  52.424   8.527  0.00  0.00    +0.149 C 
BRANCH   5   6
ATOM      6  C   ILE A   4       7.462  52.659   8.396  0.00  0.00    +0.241 C 
ATOM      7  N   ILE A   5       8.211  52.269   9.466  0.00  0.00    -0.297 N 
ATOM      8  H   ILE A   5       7.726  51.969  10.335  0.00  0.00    +0.150 HD
ATOM      9  O   ILE A   4       7.956  53.098   7.325  0.00  0.00    -0.273 OA
BRANCH   7  10
ATOM     10  CA  ILE A   5       9.672  52.258   9.435  0.00  0.00    +0.149 C 
BRANCH  10  11
ATOM     11  C   ILE A   5      10.021  50.777   9.151  0.00  0.00    +0.241 C 
ATOM     12  O   ILE A   5       9.716  49.900   9.978  0.00  0.00    -0.273 OA
ATOM     13  N   THR A   6      10.711  50.516   8.035  0.00  0.00    -0.296 N 
ATOM     14  H   THR A   6      10.978  51.319   7.430  0.00  0.00    +0.150 HD
BRANCH  13  15
ATOM     15  CA  THR A   6      11.115  49.176   7.609  0.00  0.00    +0.164 C 
BRANCH  15  16
ATOM     16  CB  THR A   6      11.016  49.007   6.092  0.00  0.00    +0.136 C 
ATOM     17  CG2 THR A   6       9.669  49.444   5.504  0.00  0.00    +0.034 C 
BRANCH  16  18
ATOM     18  OG1 THR A   6      12.135  49.687   5.482  0.00  0.00    -0.382 OA
ATOM     19  HG1 THR A   6      12.085  49.586   4.498  0.00  0.00    +0.210 HD
ENDBRANCH  16  18
ENDBRANCH  15  16
BRANCH  15  20
ATOM     20  C   THR A   6      12.526  48.869   8.079  0.00  0.00    +0.229 C 
ATOM     21  O   THR A   6      13.262  49.794   8.454  0.00  0.00    -0.286 OA
ENDBRANCH  15  20
ENDBRANCH  13  15
ENDBRANCH  10  11
BRANCH  10  22
ATOM     22  CB  ILE A   5      10.304  52.704  10.818  0.00  0.00    +0.027 C 
ATOM     23  CG2 ILE A   5      11.874  52.685  10.718  0.00  0.00    +0.002 C 
BRANCH  22  24
ATOM     24  CG1 ILE A   5       9.780  54.100  11.292  0.00  0.00    +0.002 C 
ATOM     25  CD1 ILE A   5       9.901  55.264  10.156  0.00  0.00    +0.000 C 
ENDBRANCH  22  24
ENDBRANCH  10  22
ENDBRANCH   7  10
ENDBRANCH   5   6
BRANCH   5  26
ATOM     26  CB  ILE A   4       5.484  51.209   7.700  0.00  0.00    +0.027 C 
ATOM     27  CG2 ILE A   4       6.446  49.989   7.818  0.00  0.00    +0.002 C 
BRANCH  26  28
ATOM     28  CG1 ILE A   4       4.045  50.809   8.140  0.00  0.00    +0.002 C 
ATOM     29  CD1 ILE A   4       3.284  50.187   7.071  0.00  0.00    +0.000 C 
ENDBRANCH  26  28
ENDBRANCH   5  26
ENDBRANCH   3   5
BRANCH   1  30
ATOM     30  CA  PHE A   3       4.533  55.971   8.288  0.00  0.00    +0.153 C 
BRANCH  30  33
ATOM     31  C   SER A   2       3.069  57.263   9.815  0.00  0.00    +0.243 C 
ATOM     32  O   SER A   2       2.059  56.672   9.435  0.00  0.00    -0.273 OA
ATOM     33  N   PHE A   3       4.278  56.992   9.329  0.00  0.00    -0.297 N 
ATOM     34  H   PHE A   3       5.088  57.527   9.701  0.00  0.00    +0.150 HD
BRANCH  31  35
ATOM     35  CA  SER A   2       2.964  58.437  10.784  0.00  0.00    +0.178 C 
BRANCH  35  38
ATOM     36  C   SER A   1       4.720  57.822  12.408  0.00  0.00    +0.241 C 
ATOM     37  O   SER A   1       4.093  56.854  12.832  0.00  0.00    -0.274 OA
ATOM     38  N   SER A   2       4.236  58.675  11.478  0.00  0.00    -0.295 N 
ATOM     39  H   SER A   2       4.783  59.529  11.246  0.00  0.00    +0.150 HD
BRANCH  36  40
ATOM     40  CA  SER A   1       6.135  58.095  12.907  0.00  0.00    +0.174 C 
BRANCH  40  41
ATOM     41  N   SER A   1       6.344  57.973  14.348  0.00  0.00    -0.236 NA
ATOM     42  H   SER A   1       6.512  57.029  14.750  0.00  0.00    +0.142 HD
ENDBRANCH  40  41
BRANCH  40  43
ATOM     43  CB  SER A   1       7.150  57.202  12.187  0.00  0.00    +0.163 C 
BRANCH  43  44
ATOM     44  OG  SER A   1       7.011  57.161  10.780  0.00  0.00    -0.380 OA
ATOM     45  H   SER A   1       6.112  56.817  10.548  0.00  0.00    +0.211 HD
ENDBRANCH  43  44
ENDBRANCH  40  43
ENDBRANCH  36  40
ENDBRANCH  35  38
BRANCH  35  46
ATOM     46  CB  SER A   2       2.554  59.653   9.945  0.00  0.00    +0.166 C 
BRANCH  46  47
ATOM     47  OG  SER A   2       2.417  60.766  10.799  0.00  0.00    -0.380 OA
ATOM     48  H   SER A   2       1.722  60.576  11.478  0.00  0.00    +0.211 HD
ENDBRANCH  46  47
ENDBRANCH  35  46
ENDBRANCH  31  35
ENDBRANCH  30  33
BRANCH  30  49
ATOM     49  CB  PHE A   3       5.260  56.587   7.055  0.00  0.00    +0.055 C 
BRANCH  49  50
ATOM     50  CG  PHE A   3       4.528  57.798   6.500  0.00  0.00    -0.020 A 
ATOM     51  CD2 PHE A   3       4.928  59.085   6.847  0.00  0.00    -0.004 A 
ATOM     52  CE2 PHE A   3       4.221  60.214   6.393  0.00  0.00    -0.000 A 
ATOM     53  CZ  PHE A   3       3.077  60.044   5.633  0.00  0.00    -0.000 A 
ATOM     54  CE1 PHE A   3       2.639  58.758   5.305  0.00  0.00    -0.000 A 
ATOM     55  CD1 PHE A   3       3.373  57.640   5.739  0.00  0.00    -0.004 A 
ENDBRANCH  49  50
ENDBRANCH  30  49
ENDBRANCH   1  30
TORSDOF 24
REMARK  Name = ../refined-set-2016/2xbv/2xbv_pocket.pdb
REMARK  244 active torsions:
REMARK  status: ('A' for Active; 'I' for Inactive)
REMARK    1  A    between atoms: _1  and  _5
REMARK    2  A    between atoms: _5  and  _6
REMARK    3  A    between atoms: _5  and  _8
REMARK    4  A    between atoms: _8  and  _9
REMARK    5  A    between atoms: _12  and  _14
REMARK    6  A    between atoms: _14  and  _15
REMARK    7  A    between atoms: _14  and  _17
REMARK    8  A    between atoms: _20  and  _22
REMARK    9  A    between atoms: _22  and  _23
REMARK   10  A    between atoms: _22  and  _25
REMARK   11  A    between atoms: _25  and  _26
REMARK   12  A    between atoms: _31  and  _33
REMARK   13  A    between atoms: _33  and  _34
REMARK   14  A    between atoms: _33  and  _36
REMARK   15  A    between atoms: _36  and  _37
REMARK   16  A    between atoms: _37  and  _38
REMARK   17  A    between atoms: _43  and  _45
REMARK   18  A    between atoms: _45  and  _46
REMARK   19  A    between atoms: _45  and  _48
REMARK   20  A    between atoms: _48  and  _49
REMARK   21  A    between atoms: _55  and  _57
REMARK   22  A    between atoms: _57  and  _58
REMARK   23  A    between atoms: _57  and  _60
REMARK   24  A    between atoms: _60  and  _61
REMARK   25  A    between atoms: _64  and  _66
REMARK   26  A    between atoms: _66  and  _67
REMARK   27  A    between atoms: _66  and  _69
REMARK   28  A    between atoms: _69  and  _70
REMARK   29  A    between atoms: _70  and  _71
REMARK   30  A    between atoms: _71  and  _72
REMARK   31  A    between atoms: _72  and  _73
REMARK   32  A    between atoms: _77  and  _79
REMARK   33  A    between atoms: _79  and  _80
REMARK   34  A    between atoms: _79  and  _82
REMARK   35  A    between atoms: _82  and  _83
REMARK   36  A    between atoms: _83  and  _84
REMARK   37  A    between atoms: _87  and  _89
REMARK   38  A    between atoms: _89  and  _90
REMARK   39  A    between atoms: _89  and  _92
REMARK   40  A    between atoms: _92  and  _93
REMARK   41  A    between atoms: _96  and  _98
REMARK   42  A    between atoms: _98  and  _99
REMARK   43  A    between atoms: _98  and  _101
REMARK   44  A    between atoms: _101  and  _102
REMARK   45  A    between atoms: _107  and  _108
REMARK   46  A    between atoms: _110  and  _112
REMARK   47  A    between atoms: _112  and  _113
REMARK   48  A    between atoms: _112  and  _115
REMARK   49  A    between atoms: _115  and  _116
REMARK   50  A    between atoms: _119  and  _121
REMARK   51  A    between atoms: _121  and  _122
REMARK   52  A    between atoms: _121  and  _124
REMARK   53  A    between atoms: _124  and  _125
REMARK   54  A    between atoms: _128  and  _130
REMARK   55  A    between atoms: _130  and  _131
REMARK   56  A    between atoms: _130  and  _133
REMARK   57  A    between atoms: _136  and  _138
REMARK   58  A    between atoms: _138  and  _139
REMARK   59  A    between atoms: _141  and  _143
REMARK   60  A    between atoms: _143  and  _144
REMARK   61  A    between atoms: _143  and  _146
REMARK   62  A    between atoms: _146  and  _147
REMARK   63  A    between atoms: _147  and  _148
REMARK   64  A    between atoms: _148  and  _149
REMARK   65  A    between atoms: _158  and  _160
REMARK   66  A    between atoms: _160  and  _161
REMARK   67  A    between atoms: _160  and  _163
REMARK   68  A    between atoms: _163  and  _164
REMARK   69  A    between atoms: _167  and  _169
REMARK   70  A    between atoms: _169  and  _170
REMARK   71  A    between atoms: _169  and  _172
REMARK   72  A    between atoms: _172  and  _173
REMARK   73  A    between atoms: _178  and  _180
REMARK   74  A    between atoms: _180  and  _181
REMARK   75  A    between atoms: _180  and  _183
REMARK   76  A    between atoms: _183  and  _184
REMARK   77  A    between atoms: _184  and  _185
REMARK   78  A    between atoms: _188  and  _190
REMARK   79  A    between atoms: _190  and  _191
REMARK   80  A    between atoms: _190  and  _193
REMARK   81  A    between atoms: _193  and  _194
REMARK   82  A    between atoms: _194  and  _195
REMARK   83  A    between atoms: _195  and  _196
REMARK   84  A    between atoms: _196  and  _197
REMARK   85  A    between atoms: _201  and  _203
REMARK   86  A    between atoms: _203  and  _204
REMARK   87  A    between atoms: _206  and  _208
REMARK   88  A    between atoms: _208  and  _209
REMARK   89  A    between atoms: _208  and  _211
REMARK   90  A    between atoms: _212  and  _213
REMARK   91  A    between atoms: _216  and  _218
REMARK   92  A    between atoms: _218  and  _219
REMARK   93  A    between atoms: _218  and  _221
REMARK   94  A    between atoms: _221  and  _222
REMARK   95  A    between atoms: _222  and  _223
REMARK   96  A    between atoms: _228  and  _230
REMARK   97  A    between atoms: _230  and  _231
REMARK   98  A    between atoms: _230  and  _233
REMARK   99  A    between atoms: _233  and  _234
REMARK  100  A    between atoms: _237  and  _239
REMARK  101  A    between atoms: _239  and  _240
REMARK  102  A    between atoms: _239  and  _242
REMARK  103  A    between atoms: _245  and  _247
REMARK  104  A    between atoms: _247  and  _248
REMARK  105  A    between atoms: _247  and  _250
REMARK  106  A    between atoms: _250  and  _251
REMARK  107  A    between atoms: _253  and  _255
REMARK  108  A    between atoms: _255  and  _256
REMARK  109  A    between atoms: _255  and  _258
REMARK  110  A    between atoms: _258  and  _259
REMARK  111  A    between atoms: _261  and  _263
REMARK  112  A    between atoms: _263  and  _264
REMARK  113  A    between atoms: _263  and  _266
REMARK  114  A    between atoms: _266  and  _267
REMARK  115  A    between atoms: _273  and  _275
REMARK  116  A    between atoms: _275  and  _276
REMARK  117  A    between atoms: _275  and  _278
REMARK  118  A    between atoms: _278  and  _279
REMARK  119  A    between atoms: _282  and  _284
REMARK  120  A    between atoms: _284  and  _285
REMARK  121  A    between atoms: _284  and  _287
REMARK  122  A    between atoms: _287  and  _288
REMARK  123  A    between atoms: _291  and  _293
REMARK  124  A    between atoms: _293  and  _294
REMARK  125  A    between atoms: _293  and  _296
REMARK  126  A    between atoms: _296  and  _297
REMARK  127  A    between atoms: _300  and  _302
REMARK  128  A    between atoms: _302  and  _303
REMARK  129  A    between atoms: _302  and  _305
REMARK  130  A    between atoms: _305  and  _306
REMARK  131  A    between atoms: _306  and  _307
REMARK  132  A    between atoms: _309  and  _311
REMARK  133  A    between atoms: _311  and  _312
REMARK  134  A    between atoms: _311  and  _314
REMARK  135  A    between atoms: _314  and  _315
REMARK  136  A    between atoms: _321  and  _323
REMARK  137  A    between atoms: _323  and  _324
REMARK  138  A    between atoms: _323  and  _326
REMARK  139  A    between atoms: _328  and  _330
REMARK  140  A    between atoms: _330  and  _331
REMARK  141  A    between atoms: _334  and  _336
REMARK  142  A    between atoms: _336  and  _337
REMARK  143  A    between atoms: _339  and  _341
REMARK  144  A    between atoms: _341  and  _342
REMARK  145  A    between atoms: _341  and  _344
REMARK  146  A    between atoms: _344  and  _345
REMARK  147  A    between atoms: _345  and  _346
REMARK  148  A    between atoms: _349  and  _351
REMARK  149  A    between atoms: _351  and  _352
REMARK  150  A    between atoms: _351  and  _354
REMARK  151  A    between atoms: _354  and  _355
REMARK  152  A    between atoms: _358  and  _360
REMARK  153  A    between atoms: _360  and  _361
REMARK  154  A    between atoms: _364  and  _366
REMARK  155  A    between atoms: _366  and  _367
REMARK  156  A    between atoms: _366  and  _369
REMARK  157  A    between atoms: _369  and  _370
REMARK  158  A    between atoms: _370  and  _493
REMARK  159  A    between atoms: _371  and  _373
REMARK  160  A    between atoms: _373  and  _374
REMARK  161  A    between atoms: _373  and  _376
REMARK  162  A    between atoms: _376  and  _377
REMARK  163  A    between atoms: _377  and  _378
REMARK  164  A    between atoms: _383  and  _385
REMARK  165  A    between atoms: _385  and  _386
REMARK  166  A    between atoms: _388  and  _390
REMARK  167  A    between atoms: _390  and  _391
REMARK  168  A    between atoms: _390  and  _393
REMARK  169  A    between atoms: _393  and  _394
REMARK  170  A    between atoms: _397  and  _399
REMARK  171  A    between atoms: _399  and  _400
REMARK  172  A    between atoms: _399  and  _402
REMARK  173  A    between atoms: _402  and  _403
REMARK  174  A    between atoms: _405  and  _407
REMARK  175  A    between atoms: _407  and  _408
REMARK  176  A    between atoms: _410  and  _412
REMARK  177  A    between atoms: _412  and  _413
REMARK  178  A    between atoms: _415  and  _417
REMARK  179  A    between atoms: _417  and  _418
REMARK  180  A    between atoms: _417  and  _420
REMARK  181  A    between atoms: _420  and  _421
REMARK  182  A    between atoms: _426  and  _428
REMARK  183  A    between atoms: _428  and  _429
REMARK  184  A    between atoms: _428  and  _431
REMARK  185  A    between atoms: _431  and  _432
REMARK  186  A    between atoms: _435  and  _437
REMARK  187  A    between atoms: _437  and  _438
REMARK  188  A    between atoms: _437  and  _440
REMARK  189  A    between atoms: _443  and  _445
REMARK  190  A    between atoms: _445  and  _446
REMARK  191  A    between atoms: _445  and  _448
REMARK  192  A    between atoms: _448  and  _449
REMARK  193  A    between atoms: _451  and  _453
REMARK  194  A    between atoms: _453  and  _454
REMARK  195  A    between atoms: _453  and  _456
REMARK  196  A    between atoms: _456  and  _457
REMARK  197  A    between atoms: _467  and  _469
REMARK  198  A    between atoms: _469  and  _470
REMARK  199  A    between atoms: _472  and  _474
REMARK  200  A    between atoms: _474  and  _475
REMARK  201  A    between atoms: _474  and  _477
REMARK  202  A    between atoms: _477  and  _478
REMARK  203  A    between atoms: _478  and  _479
REMARK  204  A    between atoms: _482  and  _484
REMARK  205  A    between atoms: _484  and  _485
REMARK  206  A    between atoms: _487  and  _489
REMARK  207  A    between atoms: _489  and  _490
REMARK  208  A    between atoms: _489  and  _492
REMARK  209  A    between atoms: _492  and  _493
REMARK  210  A    between atoms: _494  and  _496
REMARK  211  A    between atoms: _496  and  _497
REMARK  212  A    between atoms: _500  and  _502
REMARK  213  A    between atoms: _502  and  _503
REMARK  214  A    between atoms: _502  and  _505
REMARK  215  A    between atoms: _505  and  _506
REMARK  216  A    between atoms: _506  and  _507
REMARK  217  A    between atoms: _507  and  _508
REMARK  218  A    between atoms: _517  and  _519
REMARK  219  A    between atoms: _519  and  _520
REMARK  220  A    between atoms: _519  and  _522
REMARK  221  A    between atoms: _522  and  _523
REMARK  222  A    between atoms: _523  and  _524
REMARK  223  A    between atoms: _524  and  _525
REMARK  224  A    between atoms: _525  and  _526
REMARK  225  A    between atoms: _530  and  _532
REMARK  226  A    between atoms: _532  and  _533
REMARK  227  A    between atoms: _532  and  _535
REMARK  228  A    between atoms: _535  and  _536
REMARK  229  A    between atoms: _541  and  _542
REMARK  230  A    between atoms: _544  and  _546
REMARK  231  A    between atoms: _546  and  _547
REMARK  232  A    between atoms: _549  and  _551
REMARK  233  A    between atoms: _551  and  _552
REMARK  234  A    between atoms: _551  and  _554
REMARK  235  A    between atoms: _554  and  _555
REMARK  236  A    between atoms: _558  and  _560
REMARK  237  A    between atoms: _560  and  _561
REMARK  238  A    between atoms: _560  and  _563
REMARK  239  A    between atoms: _563  and  _564
REMARK  240  A    between atoms: _569  and  _570
REMARK  241  A    between atoms: _572  and  _574
REMARK  242  A    between atoms: _574  and  _575
REMARK  243  A    between atoms: _574  and  _577
REMARK  244  A    between atoms: _577  and  _578
REMARK                            x       y       z     vdW  Elec       q    Type
REMARK                         _______ _______ _______ _____ _____    ______ ____
ROOT
ATOM      1  C   PHE A   2      16.663  55.184  10.688  0.00  0.00    +0.241 C 
ATOM      2  N   CYS A   3      16.559  55.514  11.982  0.00  0.00    -0.296 N 
ATOM      3  H   CYS A   3      16.729  54.785  12.704  0.00  0.00    +0.150 HD
ATOM      4  O   PHE A   2      16.557  56.014   9.761  0.00  0.00    -0.273 OA
ENDROOT
BRANCH   2   5
ATOM      5  CA  CYS A   3      16.214  56.867  12.408  0.00  0.00    +0.160 C 
BRANCH   5   6
ATOM      6  C   CYS A   3      17.367  57.514  13.101  0.00  0.00    +0.242 C 
ATOM      7  O   CYS A   3      18.150  56.838  13.810  0.00  0.00    -0.273 OA
ATOM      8  N   ALA A   4      17.499  58.799  12.870  0.00  0.00    -0.297 N 
ATOM      9  H   ALA A   4      16.853  59.278  12.210  0.00  0.00    +0.150 HD
BRANCH   8  10
ATOM     10  CA  ALA A   4      18.569  59.567  13.550  0.00  0.00    +0.149 C 
ATOM     11  CB  ALA A   4      19.856  59.494  12.735  0.00  0.00    +0.031 C 
BRANCH  10  12
ATOM     12  C   ALA A   4      18.121  61.004  13.721  0.00  0.00    +0.241 C 
ATOM     13  N   GLY A   5      18.660  61.674  14.733  0.00  0.00    -0.296 N 
ATOM     14  H   GLY A   5      19.356  61.206  15.348  0.00  0.00    +0.150 HD
ATOM     15  O   ALA A   4      17.309  61.514  12.932  0.00  0.00    -0.273 OA
BRANCH  13  16
ATOM     16  CA  GLY A   5      18.286  63.055  14.989  0.00  0.00    +0.163 C 
BRANCH  16  17
ATOM     17  C   GLY A   5      17.864  63.304  16.418  0.00  0.00    +0.229 C 
ATOM     18  O   GLY A   5      18.308  62.595  17.321  0.00  0.00    -0.286 OA
ENDBRANCH  16  17
ENDBRANCH  13  16
ENDBRANCH  10  12
ENDBRANCH   8  10
ENDBRANCH   5   6
BRANCH   5  19
ATOM     19  CB  CYS A   3      15.008  56.803  13.313  0.00  0.00    +0.098 C 
ATOM     20  SG  CYS A   3      13.677  55.799  12.607  0.00  0.00    -0.080 S 
ENDBRANCH   5  19
ENDBRANCH   2   5
BRANCH   1  21
ATOM     21  CA  PHE A   2      16.969  53.713  10.383  0.00  0.00    +0.153 C 
BRANCH  21  24
ATOM     22  C   MET A   1      16.090  52.255   8.614  0.00  0.00    +0.238 C 
ATOM     23  O   MET A   1      15.979  51.250   9.332  0.00  0.00    -0.274 OA
ATOM     24  N   PHE A   2      16.621  53.397   9.020  0.00  0.00    -0.297 N 
ATOM     25  H   PHE A   2      16.802  54.124   8.299  0.00  0.00    +0.150 HD
BRANCH  22  26
ATOM     26  CA  MET A   1      15.581  52.257   7.223  0.00  0.00    +0.146 C 
BRANCH  26  27
ATOM     27  N   MET A   1      15.493  50.875   6.694  0.00  0.00    -0.238 NA
ATOM     28  H   MET A   1      14.982  50.174   7.267  0.00  0.00    +0.142 HD
ENDBRANCH  26  27
BRANCH  26  29
ATOM     29  CB  MET A   1      14.193  52.931   7.288  0.00  0.00    +0.038 C 
BRANCH  29  30
ATOM     30  CG  MET A   1      13.402  52.907   5.969  0.00  0.00    +0.060 C 
BRANCH  30  31
ATOM     31  SD  MET A   1      11.667  53.405   6.241  0.00  0.00    -0.139 S 
ATOM     32  CE  MET A   1      10.987  52.981   4.697  0.00  0.00    +0.069 C 
ENDBRANCH  30  31
ENDBRANCH  29  30
ENDBRANCH  26  29
ENDBRANCH  22  26
ENDBRANCH  21  24
BRANCH  21  33
ATOM     33  CB  PHE A   2      18.379  53.264  10.793  0.00  0.00    +0.055 C 
BRANCH  33  34
ATOM     34  CG  PHE A   2      19.470  54.131  10.252  0.00  0.00    -0.020 A 
ATOM     35  CD2 PHE A   2      19.899  55.248  10.954  0.00  0.00    -0.004 A 
ATOM     36  CE2 PHE A   2      20.919  56.067  10.435  0.00  0.00    -0.000 A 
ATOM     37  CZ  PHE A   2      21.489  55.767   9.214  0.00  0.00    -0.000 A 
ATOM     38  CE1 PHE A   2      21.043  54.677   8.485  0.00  0.00    -0.000 A 
ATOM     39  CD1 PHE A   2      20.019  53.875   8.994  0.00  0.00    -0.004 A 
ENDBRANCH  33  34
ENDBRANCH  21  33
ENDBRANCH   1  21
TORSDOF 16
REMARK  Name = ../refined-set-2016/2xbv/2xbv_pocket.pdb
REMARK  244 active torsions:
REMARK  status: ('A' for Active; 'I' for Inactive)
REMARK    1  A    between atoms: _1  and  _5
REMARK    2  A    between atoms: _5  and  _6
REMARK    3  A    between atoms: _5  and  _8
REMARK    4  A    between atoms: _8  and  _9
REMARK    5  A    between atoms: _12  and  _14
REMARK    6  A    between atoms: _14  and  _15
REMARK    7  A    between atoms: _14  and  _17
REMARK    8  A    between atoms: _20  and  _22
REMARK    9  A    between atoms: _22  and  _23
REMARK   10  A    between atoms: _22  and  _25
REMARK   11  A    between atoms: _25  and  _26
REMARK   12  A    between atoms: _31  and  _33
REMARK   13  A    between atoms: _33  and  _34
REMARK   14  A    between atoms: _33  and  _36
REMARK   15  A    between atoms: _36  and  _37
REMARK   16  A    between atoms: _37  and  _38
REMARK   17  A    between atoms: _43  and  _45
REMARK   18  A    between atoms: _45  and  _46
REMARK   19  A    between atoms: _45  and  _48
REMARK   20  A    between atoms: _48  and  _49
REMARK   21  A    between atoms: _55  and  _57
REMARK   22  A    between atoms: _57  and  _58
REMARK   23  A    between atoms: _57  and  _60
REMARK   24  A    between atoms: _60  and  _61
REMARK   25  A    between atoms: _64  and  _66
REMARK   26  A    between atoms: _66  and  _67
REMARK   27  A    between atoms: _66  and  _69
REMARK   28  A    between atoms: _69  and  _70
REMARK   29  A    between atoms: _70  and  _71
REMARK   30  A    between atoms: _71  and  _72
REMARK   31  A    between atoms: _72  and  _73
REMARK   32  A    between atoms: _77  and  _79
REMARK   33  A    between atoms: _79  and  _80
REMARK   34  A    between atoms: _79  and  _82
REMARK   35  A    between atoms: _82  and  _83
REMARK   36  A    between atoms: _83  and  _84
REMARK   37  A    between atoms: _87  and  _89
REMARK   38  A    between atoms: _89  and  _90
REMARK   39  A    between atoms: _89  and  _92
REMARK   40  A    between atoms: _92  and  _93
REMARK   41  A    between atoms: _96  and  _98
REMARK   42  A    between atoms: _98  and  _99
REMARK   43  A    between atoms: _98  and  _101
REMARK   44  A    between atoms: _101  and  _102
REMARK   45  A    between atoms: _107  and  _108
REMARK   46  A    between atoms: _110  and  _112
REMARK   47  A    between atoms: _112  and  _113
REMARK   48  A    between atoms: _112  and  _115
REMARK   49  A    between atoms: _115  and  _116
REMARK   50  A    between atoms: _119  and  _121
REMARK   51  A    between atoms: _121  and  _122
REMARK   52  A    between atoms: _121  and  _124
REMARK   53  A    between atoms: _124  and  _125
REMARK   54  A    between atoms: _128  and  _130
REMARK   55  A    between atoms: _130  and  _131
REMARK   56  A    between atoms: _130  and  _133
REMARK   57  A    between atoms: _136  and  _138
REMARK   58  A    between atoms: _138  and  _139
REMARK   59  A    between atoms: _141  and  _143
REMARK   60  A    between atoms: _143  and  _144
REMARK   61  A    between atoms: _143  and  _146
REMARK   62  A    between atoms: _146  and  _147
REMARK   63  A    between atoms: _147  and  _148
REMARK   64  A    between atoms: _148  and  _149
REMARK   65  A    between atoms: _158  and  _160
REMARK   66  A    between atoms: _160  and  _161
REMARK   67  A    between atoms: _160  and  _163
REMARK   68  A    between atoms: _163  and  _164
REMARK   69  A    between atoms: _167  and  _169
REMARK   70  A    between atoms: _169  and  _170
REMARK   71  A    between atoms: _169  and  _172
REMARK   72  A    between atoms: _172  and  _173
REMARK   73  A    between atoms: _178  and  _180
REMARK   74  A    between atoms: _180  and  _181
REMARK   75  A    between atoms: _180  and  _183
REMARK   76  A    between atoms: _183  and  _184
REMARK   77  A    between atoms: _184  and  _185
REMARK   78  A    between atoms: _188  and  _190
REMARK   79  A    between atoms: _190  and  _191
REMARK   80  A    between atoms: _190  and  _193
REMARK   81  A    between atoms: _193  and  _194
REMARK   82  A    between atoms: _194  and  _195
REMARK   83  A    between atoms: _195  and  _196
REMARK   84  A    between atoms: _196  and  _197
REMARK   85  A    between atoms: _201  and  _203
REMARK   86  A    between atoms: _203  and  _204
REMARK   87  A    between atoms: _206  and  _208
REMARK   88  A    between atoms: _208  and  _209
REMARK   89  A    between atoms: _208  and  _211
REMARK   90  A    between atoms: _212  and  _213
REMARK   91  A    between atoms: _216  and  _218
REMARK   92  A    between atoms: _218  and  _219
REMARK   93  A    between atoms: _218  and  _221
REMARK   94  A    between atoms: _221  and  _222
REMARK   95  A    between atoms: _222  and  _223
REMARK   96  A    between atoms: _228  and  _230
REMARK   97  A    between atoms: _230  and  _231
REMARK   98  A    between atoms: _230  and  _233
REMARK   99  A    between atoms: _233  and  _234
REMARK  100  A    between atoms: _237  and  _239
REMARK  101  A    between atoms: _239  and  _240
REMARK  102  A    between atoms: _239  and  _242
REMARK  103  A    between atoms: _245  and  _247
REMARK  104  A    between atoms: _247  and  _248
REMARK  105  A    between atoms: _247  and  _250
REMARK  106  A    between atoms: _250  and  _251
REMARK  107  A    between atoms: _253  and  _255
REMARK  108  A    between atoms: _255  and  _256
REMARK  109  A    between atoms: _255  and  _258
REMARK  110  A    between atoms: _258  and  _259
REMARK  111  A    between atoms: _261  and  _263
REMARK  112  A    between atoms: _263  and  _264
REMARK  113  A    between atoms: _263  and  _266
REMARK  114  A    between atoms: _266  and  _267
REMARK  115  A    between atoms: _273  and  _275
REMARK  116  A    between atoms: _275  and  _276
REMARK  117  A    between atoms: _275  and  _278
REMARK  118  A    between atoms: _278  and  _279
REMARK  119  A    between atoms: _282  and  _284
REMARK  120  A    between atoms: _284  and  _285
REMARK  121  A    between atoms: _284  and  _287
REMARK  122  A    between atoms: _287  and  _288
REMARK  123  A    between atoms: _291  and  _293
REMARK  124  A    between atoms: _293  and  _294
REMARK  125  A    between atoms: _293  and  _296
REMARK  126  A    between atoms: _296  and  _297
REMARK  127  A    between atoms: _300  and  _302
REMARK  128  A    between atoms: _302  and  _303
REMARK  129  A    between atoms: _302  and  _305
REMARK  130  A    between atoms: _305  and  _306
REMARK  131  A    between atoms: _306  and  _307
REMARK  132  A    between atoms: _309  and  _311
REMARK  133  A    between atoms: _311  and  _312
REMARK  134  A    between atoms: _311  and  _314
REMARK  135  A    between atoms: _314  and  _315
REMARK  136  A    between atoms: _321  and  _323
REMARK  137  A    between atoms: _323  and  _324
REMARK  138  A    between atoms: _323  and  _326
REMARK  139  A    between atoms: _328  and  _330
REMARK  140  A    between atoms: _330  and  _331
REMARK  141  A    between atoms: _334  and  _336
REMARK  142  A    between atoms: _336  and  _337
REMARK  143  A    between atoms: _339  and  _341
REMARK  144  A    between atoms: _341  and  _342
REMARK  145  A    between atoms: _341  and  _344
REMARK  146  A    between atoms: _344  and  _345
REMARK  147  A    between atoms: _345  and  _346
REMARK  148  A    between atoms: _349  and  _351
REMARK  149  A    between atoms: _351  and  _352
REMARK  150  A    between atoms: _351  and  _354
REMARK  151  A    between atoms: _354  and  _355
REMARK  152  A    between atoms: _358  and  _360
REMARK  153  A    between atoms: _360  and  _361
REMARK  154  A    between atoms: _364  and  _366
REMARK  155  A    between atoms: _366  and  _367
REMARK  156  A    between atoms: _366  and  _369
REMARK  157  A    between atoms: _369  and  _370
REMARK  158  A    between atoms: _370  and  _493
REMARK  159  A    between atoms: _371  and  _373
REMARK  160  A    between atoms: _373  and  _374
REMARK  161  A    between atoms: _373  and  _376
REMARK  162  A    between atoms: _376  and  _377
REMARK  163  A    between atoms: _377  and  _378
REMARK  164  A    between atoms: _383  and  _385
REMARK  165  A    between atoms: _385  and  _386
REMARK  166  A    between atoms: _388  and  _390
REMARK  167  A    between atoms: _390  and  _391
REMARK  168  A    between atoms: _390  and  _393
REMARK  169  A    between atoms: _393  and  _394
REMARK  170  A    between atoms: _397  and  _399
REMARK  171  A    between atoms: _399  and  _400
REMARK  172  A    between atoms: _399  and  _402
REMARK  173  A    between atoms: _402  and  _403
REMARK  174  A    between atoms: _405  and  _407
REMARK  175  A    between atoms: _407  and  _408
REMARK  176  A    between atoms: _410  and  _412
REMARK  177  A    between atoms: _412  and  _413
REMARK  178  A    between atoms: _415  and  _417
REMARK  179  A    between atoms: _417  and  _418
REMARK  180  A    between atoms: _417  and  _420
REMARK  181  A    between atoms: _420  and  _421
REMARK  182  A    between atoms: _426  and  _428
REMARK  183  A    between atoms: _428  and  _429
REMARK  184  A    between atoms: _428  and  _431
REMARK  185  A    between atoms: _431  and  _432
REMARK  186  A    between atoms: _435  and  _437
REMARK  187  A    between atoms: _437  and  _438
REMARK  188  A    between atoms: _437  and  _440
REMARK  189  A    between atoms: _443  and  _445
REMARK  190  A    between atoms: _445  and  _446
REMARK  191  A    between atoms: _445  and  _448
REMARK  192  A    between atoms: _448  and  _449
REMARK  193  A    between atoms: _451  and  _453
REMARK  194  A    between atoms: _453  and  _454
REMARK  195  A    between atoms: _453  and  _456
REMARK  196  A    between atoms: _456  and  _457
REMARK  197  A    between atoms: _467  and  _469
REMARK  198  A    between atoms: _469  and  _470
REMARK  199  A    between atoms: _472  and  _474
REMARK  200  A    between atoms: _474  and  _475
REMARK  201  A    between atoms: _474  and  _477
REMARK  202  A    between atoms: _477  and  _478
REMARK  203  A    between atoms: _478  and  _479
REMARK  204  A    between atoms: _482  and  _484
REMARK  205  A    between atoms: _484  and  _485
REMARK  206  A    between atoms: _487  and  _489
REMARK  207  A    between atoms: _489  and  _490
REMARK  208  A    between atoms: _489  and  _492
REMARK  209  A    between atoms: _492  and  _493
REMARK  210  A    between atoms: _494  and  _496
REMARK  211  A    between atoms: _496  and  _497
REMARK  212  A    between atoms: _500  and  _502
REMARK  213  A    between atoms: _502  and  _503
REMARK  214  A    between atoms: _502  and  _505
REMARK  215  A    between atoms: _505  and  _506
REMARK  216  A    between atoms: _506  and  _507
REMARK  217  A    between atoms: _507  and  _508
REMARK  218  A    between atoms: _517  and  _519
REMARK  219  A    between atoms: _519  and  _520
REMARK  220  A    between atoms: _519  and  _522
REMARK  221  A    between atoms: _522  and  _523
REMARK  222  A    between atoms: _523  and  _524
REMARK  223  A    between atoms: _524  and  _525
REMARK  224  A    between atoms: _525  and  _526
REMARK  225  A    between atoms: _530  and  _532
REMARK  226  A    between atoms: _532  and  _533
REMARK  227  A    between atoms: _532  and  _535
REMARK  228  A    between atoms: _535  and  _536
REMARK  229  A    between atoms: _541  and  _542
REMARK  230  A    between atoms: _544  and  _546
REMARK  231  A    between atoms: _546  and  _547
REMARK  232  A    between atoms: _549  and  _551
REMARK  233  A    between atoms: _551  and  _552
REMARK  234  A    between atoms: _551  and  _554
REMARK  235  A    between atoms: _554  and  _555
REMARK  236  A    between atoms: _558  and  _560
REMARK  237  A    between atoms: _560  and  _561
REMARK  238  A    between atoms: _560  and  _563
REMARK  239  A    between atoms: _563  and  _564
REMARK  240  A    between atoms: _569  and  _570
REMARK  241  A    between atoms: _572  and  _574
REMARK  242  A    between atoms: _574  and  _575
REMARK  243  A    between atoms: _574  and  _577
REMARK  244  A    between atoms: _577  and  _578
REMARK                            x       y       z     vdW  Elec       q    Type
REMARK                         _______ _______ _______ _____ _____    ______ ____
ROOT
ATOM      1  CA  SER A   8      12.183  68.989   9.087  0.00  0.00    +0.160 C 
ENDROOT
BRANCH   1   2
ATOM      2  C   SER A   8      12.306  69.531  10.489  0.00  0.00    +0.242 C 
ATOM      3  N   GLY A   9      13.127  68.861  11.336  0.00  0.00    -0.297 N 
ATOM      4  H   GLY A   9      13.635  68.030  10.970  0.00  0.00    +0.150 HD
ATOM      5  O   SER A   8      11.729  70.595  10.779  0.00  0.00    -0.273 OA
BRANCH   3   6
ATOM      6  CA  GLY A   9      13.343  69.243  12.753  0.00  0.00    +0.149 C 
ATOM      7  CB  GLY A   9      14.253  70.498  12.850  0.00  0.00    +0.031 C 
BRANCH   6   8
ATOM      8  C   GLY A   9      12.009  69.435  13.544  0.00  0.00    +0.241 C 
ATOM      9  O   GLY A   9      11.971  70.224  14.500  0.00  0.00    -0.273 OA
ATOM     10  N   GLY A  10      10.917  68.711  13.142  0.00  0.00    -0.298 N 
ATOM     11  H   GLY A  10      10.994  68.074  12.323  0.00  0.00    +0.150 HD
BRANCH  10  12
ATOM     12  CA  GLY A  10       9.641  68.825  13.855  0.00  0.00    +0.137 C 
BRANCH  12  13
ATOM     13  C   GLY A  10       9.753  68.188  15.232  0.00  0.00    +0.227 C 
ATOM     14  O   GLY A  10      10.443  67.166  15.416  0.00  0.00    -0.286 OA
ENDBRANCH  12  13
BRANCH  12  15
ATOM     15  CB  GLY A  10       8.446  68.275  13.057  0.00  0.00    +0.031 C 
BRANCH  15  16
ATOM     16  CG  GLY A  10       8.079  69.114  11.858  0.00  0.00    +0.045 C 
BRANCH  16  17
ATOM     17  CD  GLY A  10       6.725  68.709  11.330  0.00  0.00    +0.174 C 
BRANCH  17  18
ATOM     18  NE  GLY A  10       6.401  69.349  10.056  0.00  0.00    -0.265 N 
ATOM     19  HE  GLY A  10       7.050  70.077   9.695  0.00  0.00    +0.259 HD
ATOM     20  CZ  GLY A  10       5.327  69.056   9.332  0.00  0.00    +0.342 C 
ATOM     21  NH2 GLY A  10       4.460  68.146   9.758  0.00  0.00    -0.292 N 
ATOM     22 HH21 GLY A  10       4.620  67.659  10.663  0.00  0.00    +0.255 HD
ATOM     23 HH22 GLY A  10       3.620  67.920   9.187  0.00  0.00    +0.255 HD
ATOM     24  NH1 GLY A  10       5.107  69.672   8.177  0.00  0.00    -0.292 N 
ATOM     25 HH11 GLY A  10       5.778  70.389   7.834  0.00  0.00    +0.255 HD
ATOM     26 HH12 GLY A  10       4.264  69.438   7.615  0.00  0.00    +0.255 HD
ENDBRANCH  17  18
ENDBRANCH  16  17
ENDBRANCH  15  16
ENDBRANCH  12  15
ENDBRANCH  10  12
ENDBRANCH   6   8
ENDBRANCH   3   6
ENDBRANCH   1   2
BRANCH   1  27
ATOM     27  N   SER A   8      10.760  68.981   8.709  0.00  0.00    -0.296 N 
ATOM     28  H   SER A   8      10.157  69.752   9.061  0.00  0.00    +0.150 HD
ATOM     29  C   ASP A   7      10.199  68.050   7.947  0.00  0.00    +0.243 C 
ATOM     30  O   ASP A   7      10.849  67.128   7.449  0.00  0.00    -0.273 OA
BRANCH  29  31
ATOM     31  CA  ASP A   7       8.697  68.126   7.732  0.00  0.00    +0.176 C 
BRANCH  31  32
ATOM     32  N   ASP A   7       8.193  66.767   7.640  0.00  0.00    -0.295 N 
ATOM     33  C   GLY A   6       8.073  65.959   8.695  0.00  0.00    +0.241 C 
ATOM     34  O   GLY A   6       8.403  66.270   9.851  0.00  0.00    -0.273 OA
ATOM     35  H   ASP A   7       7.912  66.406   6.706  0.00  0.00    +0.150 HD
BRANCH  33  36
ATOM     36  CA  GLY A   6       7.712  64.538   8.353  0.00  0.00    +0.149 C 
BRANCH  36  37
ATOM     37  N   GLY A   6       9.006  63.808   8.318  0.00  0.00    -0.297 N 
ATOM     38  H   GLY A   6       9.349  63.338   9.180  0.00  0.00    +0.150 HD
ATOM     39  C   GLN A   5       9.743  63.742   7.194  0.00  0.00    +0.243 C 
ATOM     40  O   GLN A   5       9.382  64.200   6.107  0.00  0.00    -0.273 OA
BRANCH  39  41
ATOM     41  CA  GLN A   5      11.056  63.008   7.285  0.00  0.00    +0.176 C 
BRANCH  41  42
ATOM     42  N   GLN A   5      11.439  62.578   5.952  0.00  0.00    -0.295 N 
ATOM     43  C   TRP A   4      12.451  61.746   5.756  0.00  0.00    +0.241 C 
ATOM     44  O   TRP A   4      13.152  61.298   6.662  0.00  0.00    -0.273 OA
ATOM     45  H   GLN A   5      10.906  62.932   5.132  0.00  0.00    +0.150 HD
BRANCH  43  46
ATOM     46  CA  TRP A   4      12.670  61.328   4.342  0.00  0.00    +0.153 C 
BRANCH  46  47
ATOM     47  N   TRP A   4      13.906  60.533   4.167  0.00  0.00    -0.297 N 
ATOM     48  H   TRP A   4      14.367  60.077   4.980  0.00  0.00    +0.150 HD
ATOM     49  C   SER A   3      14.418  60.415   2.930  0.00  0.00    +0.243 C 
ATOM     50  O   SER A   3      13.928  61.016   1.962  0.00  0.00    -0.273 OA
BRANCH  49  51
ATOM     51  CA  SER A   3      15.683  59.581   2.731  0.00  0.00    +0.178 C 
BRANCH  51  52
ATOM     52  N   SER A   3      16.848  60.074   3.464  0.00  0.00    -0.295 N 
ATOM     53  H   SER A   3      16.851  60.081   4.504  0.00  0.00    +0.150 HD
ATOM     54  C   VAL A   2      17.925  60.523   2.771  0.00  0.00    +0.241 C 
ATOM     55  O   VAL A   2      17.958  60.571   1.533  0.00  0.00    -0.273 OA
BRANCH  54  56
ATOM     56  CA  VAL A   2      19.168  60.894   3.577  0.00  0.00    +0.148 C 
BRANCH  56  57
ATOM     57  N   VAL A   2      20.268  59.998   3.146  0.00  0.00    -0.297 N 
ATOM     58  C   ILE A   1      20.159  58.655   3.220  0.00  0.00    +0.238 C 
ATOM     59  O   ILE A   1      19.152  58.102   3.724  0.00  0.00    -0.274 OA
ATOM     60  H   VAL A   2      21.146  60.415   2.777  0.00  0.00    +0.150 HD
BRANCH  58  61
ATOM     61  CA  ILE A   1      21.310  57.808   2.698  0.00  0.00    +0.145 C 
BRANCH  61  62
ATOM     62  N   ILE A   1      21.643  56.926   3.804  0.00  0.00    -0.238 NA
ATOM     63  H   ILE A   1      20.898  56.310   4.187  0.00  0.00    +0.142 HD
ENDBRANCH  61  62
BRANCH  61  64
ATOM     64  CB  ILE A   1      20.882  57.033   1.421  0.00  0.00    +0.025 C 
ATOM     65  CG2 ILE A   1      20.370  58.015   0.313  0.00  0.00    +0.002 C 
BRANCH  64  66
ATOM     66  CG1 ILE A   1      21.930  56.032   0.932  0.00  0.00    +0.002 C 
ATOM     67  CD1 ILE A   1      21.426  55.002  -0.094  0.00  0.00    +0.000 C 
ENDBRANCH  64  66
ENDBRANCH  61  64
ENDBRANCH  58  61
ENDBRANCH  56  57
BRANCH  56  68
ATOM     68  CB  VAL A   2      19.515  62.385   3.341  0.00  0.00    +0.027 C 
ATOM     69  CG2 VAL A   2      20.817  62.754   4.070  0.00  0.00    +0.002 C 
ATOM     70  CG1 VAL A   2      18.351  63.289   3.782  0.00  0.00    +0.002 C 
ENDBRANCH  56  68
ENDBRANCH  54  56
ENDBRANCH  51  52
BRANCH  51  71
ATOM     71  CB  SER A   3      15.420  58.122   3.112  0.00  0.00    +0.166 C 
BRANCH  71  72
ATOM     72  OG  SER A   3      14.366  57.599   2.313  0.00  0.00    -0.380 OA
ATOM     73  H   SER A   3      14.622  57.648   1.358  0.00  0.00    +0.211 HD
ENDBRANCH  71  72
ENDBRANCH  51  71
ENDBRANCH  49  51
ENDBRANCH  46  47
BRANCH  46  74
ATOM     74  CB  TRP A   4      11.427  60.510   3.862  0.00  0.00    +0.057 C 
BRANCH  74  75
ATOM     75  CG  TRP A   4      11.220  59.174   4.550  0.00  0.00    -0.002 A 
ATOM     76  CD2 TRP A   4      10.360  58.904   5.661  0.00  0.00    +0.013 A 
ATOM     77  CE3 TRP A   4       9.503  59.705   6.450  0.00  0.00    +0.001 A 
ATOM     78  CZ3 TRP A   4       8.707  59.082   7.418  0.00  0.00    +0.000 A 
ATOM     79  CH2 TRP A   4       8.836  57.709   7.688  0.00  0.00    +0.001 A 
ATOM     80  CZ2 TRP A   4       9.653  56.884   6.914  0.00  0.00    +0.017 A 
ATOM     81  CE2 TRP A   4      10.405  57.502   5.905  0.00  0.00    +0.056 A 
ATOM     82  NE1 TRP A   4      11.274  56.962   4.997  0.00  0.00    -0.352 N 
ATOM     83  HE1 TRP A   4      11.556  55.962   4.951  0.00  0.00    +0.166 HD
ATOM     84  CD1 TRP A   4      11.720  57.967   4.145  0.00  0.00    +0.068 A 
ENDBRANCH  74  75
ENDBRANCH  46  74
ENDBRANCH  43  46
ENDBRANCH  41  42
ENDBRANCH  39  41
ENDBRANCH  36  37
BRANCH  36  85
ATOM     85  CB  GLY A   6       6.752  63.889   9.372  0.00  0.00    +0.041 C 
BRANCH  85  86
ATOM     86  CG  GLY A   6       6.446  62.457   8.986  0.00  0.00    +0.116 C 
BRANCH  86  87
ATOM     87  CD  GLY A   6       5.431  61.806   9.892  0.00  0.00    +0.365 C 
ATOM     88  OE2 GLY A   6       5.747  60.739  10.474  0.00  0.00    -0.246 OA
ATOM     89  OE1 GLY A   6       4.301  62.347   9.985  0.00  0.00    -0.246 OA
ENDBRANCH  86  87
ENDBRANCH  85  86
ENDBRANCH  36  85
ENDBRANCH  33  36
ENDBRANCH  31  32
ENDBRANCH  29  31
ENDBRANCH   1  27
BRANCH   1  90
ATOM     90  CB  SER A   8      13.052  69.813   8.135  0.00  0.00    +0.098 C 
BRANCH  90  91
ATOM     91  SG  SER A   8      12.789  69.436   6.418  0.00  0.00    -0.080 S 
BRANCH  91  92
ATOM     92  SG  TRP A   4      14.045  70.740   5.498  0.00  0.00    -0.080 S 
BRANCH  92  93
ATOM     93  CB  TRP A   4      15.712  70.096   5.700  0.00  0.00    +0.098 C 
BRANCH  93  94
ATOM     94  CA  TRP A   4      15.862  68.605   5.346  0.00  0.00    +0.160 C 
BRANCH  94  97
ATOM     95  C   SER A   3      17.158  67.662   7.131  0.00  0.00    +0.241 C 
ATOM     96  O   SER A   3      16.135  67.724   7.879  0.00  0.00    -0.273 OA
ATOM     97  N   TRP A   4      17.113  68.082   5.868  0.00  0.00    -0.296 N 
ATOM     98  H   TRP A   4      17.959  68.036   5.265  0.00  0.00    +0.150 HD
BRANCH  95  99
ATOM     99  CA  SER A   3      18.519  67.133   7.635  0.00  0.00    +0.149 C 
ATOM    100  CB  SER A   3      18.879  65.801   6.964  0.00  0.00    +0.031 C 
BRANCH  99 103
ATOM    101  C   VAL A   2      18.361  67.991   9.889  0.00  0.00    +0.241 C 
ATOM    102  O   VAL A   2      18.670  69.143   9.505  0.00  0.00    -0.273 OA
ATOM    103  N   SER A   3      18.324  66.949   9.066  0.00  0.00    -0.297 N 
ATOM    104  H   SER A   3      18.155  65.996   9.446  0.00  0.00    +0.150 HD
BRANCH 101 105
ATOM    105  CA  VAL A   2      17.871  67.739  11.330  0.00  0.00    +0.160 C 
BRANCH 105 108
ATOM    106  C   ILE A   1      18.055  68.928  13.474  0.00  0.00    +0.238 C 
ATOM    107  O   ILE A   1      17.619  67.964  14.112  0.00  0.00    -0.274 OA
ATOM    108  N   VAL A   2      18.249  68.902  12.135  0.00  0.00    -0.297 N 
ATOM    109  H   VAL A   2      18.676  69.727  11.667  0.00  0.00    +0.150 HD
BRANCH 106 110
ATOM    110  CA  ILE A   1      18.427  70.217  14.205  0.00  0.00    +0.145 C 
BRANCH 110 111
ATOM    111  N   ILE A   1      17.312  70.622  15.070  0.00  0.00    -0.238 NA
ATOM    112  H   ILE A   1      16.808  69.878  15.593  0.00  0.00    +0.142 HD
ENDBRANCH 110 111
BRANCH 110 113
ATOM    113  CB  ILE A   1      19.708  69.991  14.998  0.00  0.00    +0.038 C 
BRANCH 113 114
ATOM    114  CG  ILE A   1      20.341  71.247  15.585  0.00  0.00    +0.116 C 
BRANCH 114 115
ATOM    115  CD  ILE A   1      21.788  71.064  15.976  0.00  0.00    +0.365 C 
ATOM    116  OE2 ILE A   1      22.099  70.077  16.685  0.00  0.00    -0.246 OA
ATOM    117  OE1 ILE A   1      22.629  71.877  15.520  0.00  0.00    -0.246 OA
ENDBRANCH 114 115
ENDBRANCH 113 114
ENDBRANCH 110 113
ENDBRANCH 106 110
ENDBRANCH 105 108
BRANCH 105 118
ATOM    118  CB  VAL A   2      16.316  67.725  11.276  0.00  0.00    +0.143 C 
BRANCH 118 119
ATOM    119  CG  VAL A   2      15.637  66.423  10.822  0.00  0.00    +0.367 C 
ATOM    120  OD2 VAL A   2      14.390  66.437  10.643  0.00  0.00    -0.246 OA
ATOM    121  OD1 VAL A   2      16.355  65.471  10.514  0.00  0.00    -0.246 OA
ENDBRANCH 118 119
ENDBRANCH 105 118
ENDBRANCH 101 105
ENDBRANCH  99 103
ENDBRANCH  95  99
ENDBRANCH  94  97
BRANCH  94 122
ATOM    122  C   TRP A   4      15.807  68.342   3.827  0.00  0.00    +0.242 C 
ATOM    123  O   TRP A   4      16.760  67.790   3.274  0.00  0.00    -0.273 OA
ATOM    124  N   GLN A   5      14.681  68.703   3.157  0.00  0.00    -0.297 N 
ATOM    125  H   GLN A   5      13.893  69.143   3.673  0.00  0.00    +0.150 HD
BRANCH 124 126
ATOM    126  CA  GLN A   5      14.567  68.477   1.712  0.00  0.00    +0.149 C 
BRANCH 126 127
ATOM    127  C   GLN A   5      15.736  69.167   1.009  0.00  0.00    +0.241 C 
ATOM    128  O   GLN A   5      16.148  70.270   1.380  0.00  0.00    -0.273 OA
ATOM    129  N   GLY A   6      16.320  68.454   0.066  0.00  0.00    -0.295 N 
ATOM    130  H   GLY A   6      15.938  67.516  -0.170  0.00  0.00    +0.150 HD
BRANCH 129 131
ATOM    131  CA  GLY A   6      17.486  68.947  -0.654  0.00  0.00    +0.176 C 
BRANCH 131 132
ATOM    132  C   GLY A   6      18.749  68.257  -0.193  0.00  0.00    +0.243 C 
ATOM    133  N   ASP A   7      18.801  67.799   1.093  0.00  0.00    -0.296 N 
ATOM    134  H   ASP A   7      18.020  68.035   1.738  0.00  0.00    +0.150 HD
ATOM    135  O   GLY A   6      19.680  68.125  -0.981  0.00  0.00    -0.273 OA
BRANCH 133 136
ATOM    136  CA  ASP A   7      19.918  66.984   1.605  0.00  0.00    +0.160 C 
BRANCH 136 137
ATOM    137  C   ASP A   7      19.673  65.518   1.160  0.00  0.00    +0.241 C 
ATOM    138  O   ASP A   7      20.579  64.710   1.185  0.00  0.00    -0.273 OA
ATOM    139  N   SER A   8      18.408  65.209   0.824  0.00  0.00    -0.295 N 
ATOM    140  H   SER A   8      17.713  65.970   0.963  0.00  0.00    +0.150 HD
BRANCH 139 141
ATOM    141  CA  SER A   8      17.867  63.956   0.291  0.00  0.00    +0.178 C 
BRANCH 141 142
ATOM    142  C   SER A   8      18.900  63.303  -0.658  0.00  0.00    +0.243 C 
ATOM    143  N   GLY A   9      19.218  62.013  -0.429  0.00  0.00    -0.295 N 
ATOM    144  H   GLY A   9      18.768  61.513   0.364  0.00  0.00    +0.150 HD
ATOM    145  O   SER A   8      19.423  64.009  -1.554  0.00  0.00    -0.273 OA
BRANCH 143 146
ATOM    146  CA  GLY A   9      20.168  61.307  -1.257  0.00  0.00    +0.176 C 
BRANCH 146 147
ATOM    147  C   GLY A   9      21.622  61.392  -0.818  0.00  0.00    +0.243 C 
ATOM    148  N   GLY A  10      21.902  62.342   0.048  0.00  0.00    -0.296 N 
ATOM    149  H   GLY A  10      21.101  62.909   0.394  0.00  0.00    +0.150 HD
ATOM    150  O   GLY A   9      22.443  60.610  -1.272  0.00  0.00    -0.273 OA
BRANCH 148 151
ATOM    151  CA  GLY A  10      23.218  62.682   0.572  0.00  0.00    +0.163 C 
BRANCH 151 152
ATOM    152  C   GLY A  10      23.739  61.731   1.627  0.00  0.00    +0.229 C 
ATOM    153  O   GLY A  10      23.057  60.772   2.054  0.00  0.00    -0.286 OA
ENDBRANCH 151 152
ENDBRANCH 148 151
ENDBRANCH 146 147
ENDBRANCH 143 146
ENDBRANCH 141 142
BRANCH 141 154
ATOM    154  CB  SER A   8      16.600  64.306  -0.502  0.00  0.00    +0.166 C 
BRANCH 154 155
ATOM    155  OG  SER A   8      15.822  65.230   0.245  0.00  0.00    -0.380 OA
ATOM    156  H   SER A   8      15.570  64.823   1.112  0.00  0.00    +0.211 HD
ENDBRANCH 154 155
ENDBRANCH 141 154
ENDBRANCH 139 141
ENDBRANCH 136 137
BRANCH 136 157
ATOM    157  CB  ASP A   7      19.949  66.983   3.127  0.00  0.00    +0.143 C 
BRANCH 157 158
ATOM    158  CG  ASP A   7      20.263  68.348   3.685  0.00  0.00    +0.367 C 
ATOM    159  OD2 ASP A   7      19.623  68.734   4.669  0.00  0.00    -0.246 OA
ATOM    160  OD1 ASP A   7      21.154  69.025   3.117  0.00  0.00    -0.246 OA
ENDBRANCH 157 158
ENDBRANCH 136 157
ENDBRANCH 133 136
ENDBRANCH 131 132
ENDBRANCH 129 131
ENDBRANCH 126 127
BRANCH 126 161
ATOM    161  CB  GLN A   5      13.246  69.028   1.174  0.00  0.00    +0.039 C 
BRANCH 161 162
ATOM    162  CG  GLN A   5      12.895  68.424  -0.202  0.00  0.00    +0.087 C 
BRANCH 162 163
ATOM    163  CD  GLN A   5      11.587  68.942  -0.695  0.00  0.00    +0.219 C 
ATOM    164  OE1 GLN A   5      11.394  70.144  -0.871  0.00  0.00    -0.275 OA
ATOM    165  NE2 GLN A   5      10.660  68.039  -0.921  0.00  0.00    -0.329 N 
ATOM    166 HE21 GLN A   5      10.864  67.032  -0.759  0.00  0.00    +0.145 HD
ATOM    167 HE22 GLN A   5       9.722  68.331  -1.262  0.00  0.00    +0.145 HD
ENDBRANCH 162 163
ENDBRANCH 161 162
ENDBRANCH 126 161
ENDBRANCH 124 126
ENDBRANCH  94 122
ENDBRANCH  93  94
ENDBRANCH  92  93
ENDBRANCH  91  92
ENDBRANCH  90  91
ENDBRANCH   1  90
TORSDOF 71
REMARK  Name = ../refined-set-2016/2xbv/2xbv_pocket.pdb
REMARK  244 active torsions:
REMARK  status: ('A' for Active; 'I' for Inactive)
REMARK    1  A    between atoms: _1  and  _5
REMARK    2  A    between atoms: _5  and  _6
REMARK    3  A    between atoms: _5  and  _8
REMARK    4  A    between atoms: _8  and  _9
REMARK    5  A    between atoms: _12  and  _14
REMARK    6  A    between atoms: _14  and  _15
REMARK    7  A    between atoms: _14  and  _17
REMARK    8  A    between atoms: _20  and  _22
REMARK    9  A    between atoms: _22  and  _23
REMARK   10  A    between atoms: _22  and  _25
REMARK   11  A    between atoms: _25  and  _26
REMARK   12  A    between atoms: _31  and  _33
REMARK   13  A    between atoms: _33  and  _34
REMARK   14  A    between atoms: _33  and  _36
REMARK   15  A    between atoms: _36  and  _37
REMARK   16  A    between atoms: _37  and  _38
REMARK   17  A    between atoms: _43  and  _45
REMARK   18  A    between atoms: _45  and  _46
REMARK   19  A    between atoms: _45  and  _48
REMARK   20  A    between atoms: _48  and  _49
REMARK   21  A    between atoms: _55  and  _57
REMARK   22  A    between atoms: _57  and  _58
REMARK   23  A    between atoms: _57  and  _60
REMARK   24  A    between atoms: _60  and  _61
REMARK   25  A    between atoms: _64  and  _66
REMARK   26  A    between atoms: _66  and  _67
REMARK   27  A    between atoms: _66  and  _69
REMARK   28  A    between atoms: _69  and  _70
REMARK   29  A    between atoms: _70  and  _71
REMARK   30  A    between atoms: _71  and  _72
REMARK   31  A    between atoms: _72  and  _73
REMARK   32  A    between atoms: _77  and  _79
REMARK   33  A    between atoms: _79  and  _80
REMARK   34  A    between atoms: _79  and  _82
REMARK   35  A    between atoms: _82  and  _83
REMARK   36  A    between atoms: _83  and  _84
REMARK   37  A    between atoms: _87  and  _89
REMARK   38  A    between atoms: _89  and  _90
REMARK   39  A    between atoms: _89  and  _92
REMARK   40  A    between atoms: _92  and  _93
REMARK   41  A    between atoms: _96  and  _98
REMARK   42  A    between atoms: _98  and  _99
REMARK   43  A    between atoms: _98  and  _101
REMARK   44  A    between atoms: _101  and  _102
REMARK   45  A    between atoms: _107  and  _108
REMARK   46  A    between atoms: _110  and  _112
REMARK   47  A    between atoms: _112  and  _113
REMARK   48  A    between atoms: _112  and  _115
REMARK   49  A    between atoms: _115  and  _116
REMARK   50  A    between atoms: _119  and  _121
REMARK   51  A    between atoms: _121  and  _122
REMARK   52  A    between atoms: _121  and  _124
REMARK   53  A    between atoms: _124  and  _125
REMARK   54  A    between atoms: _128  and  _130
REMARK   55  A    between atoms: _130  and  _131
REMARK   56  A    between atoms: _130  and  _133
REMARK   57  A    between atoms: _136  and  _138
REMARK   58  A    between atoms: _138  and  _139
REMARK   59  A    between atoms: _141  and  _143
REMARK   60  A    between atoms: _143  and  _144
REMARK   61  A    between atoms: _143  and  _146
REMARK   62  A    between atoms: _146  and  _147
REMARK   63  A    between atoms: _147  and  _148
REMARK   64  A    between atoms: _148  and  _149
REMARK   65  A    between atoms: _158  and  _160
REMARK   66  A    between atoms: _160  and  _161
REMARK   67  A    between atoms: _160  and  _163
REMARK   68  A    between atoms: _163  and  _164
REMARK   69  A    between atoms: _167  and  _169
REMARK   70  A    between atoms: _169  and  _170
REMARK   71  A    between atoms: _169  and  _172
REMARK   72  A    between atoms: _172  and  _173
REMARK   73  A    between atoms: _178  and  _180
REMARK   74  A    between atoms: _180  and  _181
REMARK   75  A    between atoms: _180  and  _183
REMARK   76  A    between atoms: _183  and  _184
REMARK   77  A    between atoms: _184  and  _185
REMARK   78  A    between atoms: _188  and  _190
REMARK   79  A    between atoms: _190  and  _191
REMARK   80  A    between atoms: _190  and  _193
REMARK   81  A    between atoms: _193  and  _194
REMARK   82  A    between atoms: _194  and  _195
REMARK   83  A    between atoms: _195  and  _196
REMARK   84  A    between atoms: _196  and  _197
REMARK   85  A    between atoms: _201  and  _203
REMARK   86  A    between atoms: _203  and  _204
REMARK   87  A    between atoms: _206  and  _208
REMARK   88  A    between atoms: _208  and  _209
REMARK   89  A    between atoms: _208  and  _211
REMARK   90  A    between atoms: _212  and  _213
REMARK   91  A    between atoms: _216  and  _218
REMARK   92  A    between atoms: _218  and  _219
REMARK   93  A    between atoms: _218  and  _221
REMARK   94  A    between atoms: _221  and  _222
REMARK   95  A    between atoms: _222  and  _223
REMARK   96  A    between atoms: _228  and  _230
REMARK   97  A    between atoms: _230  and  _231
REMARK   98  A    between atoms: _230  and  _233
REMARK   99  A    between atoms: _233  and  _234
REMARK  100  A    between atoms: _237  and  _239
REMARK  101  A    between atoms: _239  and  _240
REMARK  102  A    between atoms: _239  and  _242
REMARK  103  A    between atoms: _245  and  _247
REMARK  104  A    between atoms: _247  and  _248
REMARK  105  A    between atoms: _247  and  _250
REMARK  106  A    between atoms: _250  and  _251
REMARK  107  A    between atoms: _253  and  _255
REMARK  108  A    between atoms: _255  and  _256
REMARK  109  A    between atoms: _255  and  _258
REMARK  110  A    between atoms: _258  and  _259
REMARK  111  A    between atoms: _261  and  _263
REMARK  112  A    between atoms: _263  and  _264
REMARK  113  A    between atoms: _263  and  _266
REMARK  114  A    between atoms: _266  and  _267
REMARK  115  A    between atoms: _273  and  _275
REMARK  116  A    between atoms: _275  and  _276
REMARK  117  A    between atoms: _275  and  _278
REMARK  118  A    between atoms: _278  and  _279
REMARK  119  A    between atoms: _282  and  _284
REMARK  120  A    between atoms: _284  and  _285
REMARK  121  A    between atoms: _284  and  _287
REMARK  122  A    between atoms: _287  and  _288
REMARK  123  A    between atoms: _291  and  _293
REMARK  124  A    between atoms: _293  and  _294
REMARK  125  A    between atoms: _293  and  _296
REMARK  126  A    between atoms: _296  and  _297
REMARK  127  A    between atoms: _300  and  _302
REMARK  128  A    between atoms: _302  and  _303
REMARK  129  A    between atoms: _302  and  _305
REMARK  130  A    between atoms: _305  and  _306
REMARK  131  A    between atoms: _306  and  _307
REMARK  132  A    between atoms: _309  and  _311
REMARK  133  A    between atoms: _311  and  _312
REMARK  134  A    between atoms: _311  and  _314
REMARK  135  A    between atoms: _314  and  _315
REMARK  136  A    between atoms: _321  and  _323
REMARK  137  A    between atoms: _323  and  _324
REMARK  138  A    between atoms: _323  and  _326
REMARK  139  A    between atoms: _328  and  _330
REMARK  140  A    between atoms: _330  and  _331
REMARK  141  A    between atoms: _334  and  _336
REMARK  142  A    between atoms: _336  and  _337
REMARK  143  A    between atoms: _339  and  _341
REMARK  144  A    between atoms: _341  and  _342
REMARK  145  A    between atoms: _341  and  _344
REMARK  146  A    between atoms: _344  and  _345
REMARK  147  A    between atoms: _345  and  _346
REMARK  148  A    between atoms: _349  and  _351
REMARK  149  A    between atoms: _351  and  _352
REMARK  150  A    between atoms: _351  and  _354
REMARK  151  A    between atoms: _354  and  _355
REMARK  152  A    between atoms: _358  and  _360
REMARK  153  A    between atoms: _360  and  _361
REMARK  154  A    between atoms: _364  and  _366
REMARK  155  A    between atoms: _366  and  _367
REMARK  156  A    between atoms: _366  and  _369
REMARK  157  A    between atoms: _369  and  _370
REMARK  158  A    between atoms: _370  and  _493
REMARK  159  A    between atoms: _371  and  _373
REMARK  160  A    between atoms: _373  and  _374
REMARK  161  A    between atoms: _373  and  _376
REMARK  162  A    between atoms: _376  and  _377
REMARK  163  A    between atoms: _377  and  _378
REMARK  164  A    between atoms: _383  and  _385
REMARK  165  A    between atoms: _385  and  _386
REMARK  166  A    between atoms: _388  and  _390
REMARK  167  A    between atoms: _390  and  _391
REMARK  168  A    between atoms: _390  and  _393
REMARK  169  A    between atoms: _393  and  _394
REMARK  170  A    between atoms: _397  and  _399
REMARK  171  A    between atoms: _399  and  _400
REMARK  172  A    between atoms: _399  and  _402
REMARK  173  A    between atoms: _402  and  _403
REMARK  174  A    between atoms: _405  and  _407
REMARK  175  A    between atoms: _407  and  _408
REMARK  176  A    between atoms: _410  and  _412
REMARK  177  A    between atoms: _412  and  _413
REMARK  178  A    between atoms: _415  and  _417
REMARK  179  A    between atoms: _417  and  _418
REMARK  180  A    between atoms: _417  and  _420
REMARK  181  A    between atoms: _420  and  _421
REMARK  182  A    between atoms: _426  and  _428
REMARK  183  A    between atoms: _428  and  _429
REMARK  184  A    between atoms: _428  and  _431
REMARK  185  A    between atoms: _431  and  _432
REMARK  186  A    between atoms: _435  and  _437
REMARK  187  A    between atoms: _437  and  _438
REMARK  188  A    between atoms: _437  and  _440
REMARK  189  A    between atoms: _443  and  _445
REMARK  190  A    between atoms: _445  and  _446
REMARK  191  A    between atoms: _445  and  _448
REMARK  192  A    between atoms: _448  and  _449
REMARK  193  A    between atoms: _451  and  _453
REMARK  194  A    between atoms: _453  and  _454
REMARK  195  A    between atoms: _453  and  _456
REMARK  196  A    between atoms: _456  and  _457
REMARK  197  A    between atoms: _467  and  _469
REMARK  198  A    between atoms: _469  and  _470
REMARK  199  A    between atoms: _472  and  _474
REMARK  200  A    between atoms: _474  and  _475
REMARK  201  A    between atoms: _474  and  _477
REMARK  202  A    between atoms: _477  and  _478
REMARK  203  A    between atoms: _478  and  _479
REMARK  204  A    between atoms: _482  and  _484
REMARK  205  A    between atoms: _484  and  _485
REMARK  206  A    between atoms: _487  and  _489
REMARK  207  A    between atoms: _489  and  _490
REMARK  208  A    between atoms: _489  and  _492
REMARK  209  A    between atoms: _492  and  _493
REMARK  210  A    between atoms: _494  and  _496
REMARK  211  A    between atoms: _496  and  _497
REMARK  212  A    between atoms: _500  and  _502
REMARK  213  A    between atoms: _502  and  _503
REMARK  214  A    between atoms: _502  and  _505
REMARK  215  A    between atoms: _505  and  _506
REMARK  216  A    between atoms: _506  and  _507
REMARK  217  A    between atoms: _507  and  _508
REMARK  218  A    between atoms: _517  and  _519
REMARK  219  A    between atoms: _519  and  _520
REMARK  220  A    between atoms: _519  and  _522
REMARK  221  A    between atoms: _522  and  _523
REMARK  222  A    between atoms: _523  and  _524
REMARK  223  A    between atoms: _524  and  _525
REMARK  224  A    between atoms: _525  and  _526
REMARK  225  A    between atoms: _530  and  _532
REMARK  226  A    between atoms: _532  and  _533
REMARK  227  A    between atoms: _532  and  _535
REMARK  228  A    between atoms: _535  and  _536
REMARK  229  A    between atoms: _541  and  _542
REMARK  230  A    between atoms: _544  and  _546
REMARK  231  A    between atoms: _546  and  _547
REMARK  232  A    between atoms: _549  and  _551
REMARK  233  A    between atoms: _551  and  _552
REMARK  234  A    between atoms: _551  and  _554
REMARK  235  A    between atoms: _554  and  _555
REMARK  236  A    between atoms: _558  and  _560
REMARK  237  A    between atoms: _560  and  _561
REMARK  238  A    between atoms: _560  and  _563
REMARK  239  A    between atoms: _563  and  _564
REMARK  240  A    between atoms: _569  and  _570
REMARK  241  A    between atoms: _572  and  _574
REMARK  242  A    between atoms: _574  and  _575
REMARK  243  A    between atoms: _574  and  _577
REMARK  244  A    between atoms: _577  and  _578
REMARK                            x       y       z     vdW  Elec       q    Type
REMARK                         _______ _______ _______ _____ _____    ______ ____
ROOT
ATOM      1  CB  HIS A   1      23.829  59.093   7.005  0.00  0.00    +0.072 C 
ENDROOT
BRANCH   1   2
ATOM      2  CG  HIS A   1      23.870  58.802   8.501  0.00  0.00    +0.082 A 
ATOM      3  CD2 HIS A   1      23.235  59.435   9.513  0.00  0.00    +0.115 A 
ATOM      4  NE2 HIS A   1      23.565  58.753  10.679  0.00  0.00    -0.221 NA
ATOM      5  CE1 HIS A   1      24.336  57.735  10.322  0.00  0.00    +0.199 A 
ATOM      6  ND1 HIS A   1      24.579  57.735   9.012  0.00  0.00    -0.227 NA
ENDBRANCH   1   2
BRANCH   1   7
ATOM      7  CA  HIS A   1      25.110  59.786   6.508  0.00  0.00    +0.139 C 
BRANCH   7   8
ATOM      8  N   HIS A   1      25.125  59.961   5.062  0.00  0.00    -0.239 NA
ATOM      9  H   HIS A   1      25.085  59.105   4.473  0.00  0.00    +0.142 HD
ENDBRANCH   7   8
BRANCH   7  10
ATOM     10  C   HIS A   1      26.318  58.861   6.719  0.00  0.00    +0.224 C 
ATOM     11  O   HIS A   1      26.360  57.736   6.193  0.00  0.00    -0.287 OA
ENDBRANCH   7  10
ENDBRANCH   1   7
TORSDOF 4
REMARK  Name = ../refined-set-2016/2xbv/2xbv_pocket.pdb
REMARK  244 active torsions:
REMARK  status: ('A' for Active; 'I' for Inactive)
REMARK    1  A    between atoms: _1  and  _5
REMARK    2  A    between atoms: _5  and  _6
REMARK    3  A    between atoms: _5  and  _8
REMARK    4  A    between atoms: _8  and  _9
REMARK    5  A    between atoms: _12  and  _14
REMARK    6  A    between atoms: _14  and  _15
REMARK    7  A    between atoms: _14  and  _17
REMARK    8  A    between atoms: _20  and  _22
REMARK    9  A    between atoms: _22  and  _23
REMARK   10  A    between atoms: _22  and  _25
REMARK   11  A    between atoms: _25  and  _26
REMARK   12  A    between atoms: _31  and  _33
REMARK   13  A    between atoms: _33  and  _34
REMARK   14  A    between atoms: _33  and  _36
REMARK   15  A    between atoms: _36  and  _37
REMARK   16  A    between atoms: _37  and  _38
REMARK   17  A    between atoms: _43  and  _45
REMARK   18  A    between atoms: _45  and  _46
REMARK   19  A    between atoms: _45  and  _48
REMARK   20  A    between atoms: _48  and  _49
REMARK   21  A    between atoms: _55  and  _57
REMARK   22  A    between atoms: _57  and  _58
REMARK   23  A    between atoms: _57  and  _60
REMARK   24  A    between atoms: _60  and  _61
REMARK   25  A    between atoms: _64  and  _66
REMARK   26  A    between atoms: _66  and  _67
REMARK   27  A    between atoms: _66  and  _69
REMARK   28  A    between atoms: _69  and  _70
REMARK   29  A    between atoms: _70  and  _71
REMARK   30  A    between atoms: _71  and  _72
REMARK   31  A    between atoms: _72  and  _73
REMARK   32  A    between atoms: _77  and  _79
REMARK   33  A    between atoms: _79  and  _80
REMARK   34  A    between atoms: _79  and  _82
REMARK   35  A    between atoms: _82  and  _83
REMARK   36  A    between atoms: _83  and  _84
REMARK   37  A    between atoms: _87  and  _89
REMARK   38  A    between atoms: _89  and  _90
REMARK   39  A    between atoms: _89  and  _92
REMARK   40  A    between atoms: _92  and  _93
REMARK   41  A    between atoms: _96  and  _98
REMARK   42  A    between atoms: _98  and  _99
REMARK   43  A    between atoms: _98  and  _101
REMARK   44  A    between atoms: _101  and  _102
REMARK   45  A    between atoms: _107  and  _108
REMARK   46  A    between atoms: _110  and  _112
REMARK   47  A    between atoms: _112  and  _113
REMARK   48  A    between atoms: _112  and  _115
REMARK   49  A    between atoms: _115  and  _116
REMARK   50  A    between atoms: _119  and  _121
REMARK   51  A    between atoms: _121  and  _122
REMARK   52  A    between atoms: _121  and  _124
REMARK   53  A    between atoms: _124  and  _125
REMARK   54  A    between atoms: _128  and  _130
REMARK   55  A    between atoms: _130  and  _131
REMARK   56  A    between atoms: _130  and  _133
REMARK   57  A    between atoms: _136  and  _138
REMARK   58  A    between atoms: _138  and  _139
REMARK   59  A    between atoms: _141  and  _143
REMARK   60  A    between atoms: _143  and  _144
REMARK   61  A    between atoms: _143  and  _146
REMARK   62  A    between atoms: _146  and  _147
REMARK   63  A    between atoms: _147  and  _148
REMARK   64  A    between atoms: _148  and  _149
REMARK   65  A    between atoms: _158  and  _160
REMARK   66  A    between atoms: _160  and  _161
REMARK   67  A    between atoms: _160  and  _163
REMARK   68  A    between atoms: _163  and  _164
REMARK   69  A    between atoms: _167  and  _169
REMARK   70  A    between atoms: _169  and  _170
REMARK   71  A    between atoms: _169  and  _172
REMARK   72  A    between atoms: _172  and  _173
REMARK   73  A    between atoms: _178  and  _180
REMARK   74  A    between atoms: _180  and  _181
REMARK   75  A    between atoms: _180  and  _183
REMARK   76  A    between atoms: _183  and  _184
REMARK   77  A    between atoms: _184  and  _185
REMARK   78  A    between atoms: _188  and  _190
REMARK   79  A    between atoms: _190  and  _191
REMARK   80  A    between atoms: _190  and  _193
REMARK   81  A    between atoms: _193  and  _194
REMARK   82  A    between atoms: _194  and  _195
REMARK   83  A    between atoms: _195  and  _196
REMARK   84  A    between atoms: _196  and  _197
REMARK   85  A    between atoms: _201  and  _203
REMARK   86  A    between atoms: _203  and  _204
REMARK   87  A    between atoms: _206  and  _208
REMARK   88  A    between atoms: _208  and  _209
REMARK   89  A    between atoms: _208  and  _211
REMARK   90  A    between atoms: _212  and  _213
REMARK   91  A    between atoms: _216  and  _218
REMARK   92  A    between atoms: _218  and  _219
REMARK   93  A    between atoms: _218  and  _221
REMARK   94  A    between atoms: _221  and  _222
REMARK   95  A    between atoms: _222  and  _223
REMARK   96  A    between atoms: _228  and  _230
REMARK   97  A    between atoms: _230  and  _231
REMARK   98  A    between atoms: _230  and  _233
REMARK   99  A    between atoms: _233  and  _234
REMARK  100  A    between atoms: _237  and  _239
REMARK  101  A    between atoms: _239  and  _240
REMARK  102  A    between atoms: _239  and  _242
REMARK  103  A    between atoms: _245  and  _247
REMARK  104  A    between atoms: _247  and  _248
REMARK  105  A    between atoms: _247  and  _250
REMARK  106  A    between atoms: _250  and  _251
REMARK  107  A    between atoms: _253  and  _255
REMARK  108  A    between atoms: _255  and  _256
REMARK  109  A    between atoms: _255  and  _258
REMARK  110  A    between atoms: _258  and  _259
REMARK  111  A    between atoms: _261  and  _263
REMARK  112  A    between atoms: _263  and  _264
REMARK  113  A    between atoms: _263  and  _266
REMARK  114  A    between atoms: _266  and  _267
REMARK  115  A    between atoms: _273  and  _275
REMARK  116  A    between atoms: _275  and  _276
REMARK  117  A    between atoms: _275  and  _278
REMARK  118  A    between atoms: _278  and  _279
REMARK  119  A    between atoms: _282  and  _284
REMARK  120  A    between atoms: _284  and  _285
REMARK  121  A    between atoms: _284  and  _287
REMARK  122  A    between atoms: _287  and  _288
REMARK  123  A    between atoms: _291  and  _293
REMARK  124  A    between atoms: _293  and  _294
REMARK  125  A    between atoms: _293  and  _296
REMARK  126  A    between atoms: _296  and  _297
REMARK  127  A    between atoms: _300  and  _302
REMARK  128  A    between atoms: _302  and  _303
REMARK  129  A    between atoms: _302  and  _305
REMARK  130  A    between atoms: _305  and  _306
REMARK  131  A    between atoms: _306  and  _307
REMARK  132  A    between atoms: _309  and  _311
REMARK  133  A    between atoms: _311  and  _312
REMARK  134  A    between atoms: _311  and  _314
REMARK  135  A    between atoms: _314  and  _315
REMARK  136  A    between atoms: _321  and  _323
REMARK  137  A    between atoms: _323  and  _324
REMARK  138  A    between atoms: _323  and  _326
REMARK  139  A    between atoms: _328  and  _330
REMARK  140  A    between atoms: _330  and  _331
REMARK  141  A    between atoms: _334  and  _336
REMARK  142  A    between atoms: _336  and  _337
REMARK  143  A    between atoms: _339  and  _341
REMARK  144  A    between atoms: _341  and  _342
REMARK  145  A    between atoms: _341  and  _344
REMARK  146  A    between atoms: _344  and  _345
REMARK  147  A    between atoms: _345  and  _346
REMARK  148  A    between atoms: _349  and  _351
REMARK  149  A    between atoms: _351  and  _352
REMARK  150  A    between atoms: _351  and  _354
REMARK  151  A    between atoms: _354  and  _355
REMARK  152  A    between atoms: _358  and  _360
REMARK  153  A    between atoms: _360  and  _361
REMARK  154  A    between atoms: _364  and  _366
REMARK  155  A    between atoms: _366  and  _367
REMARK  156  A    between atoms: _366  and  _369
REMARK  157  A    between atoms: _369  and  _370
REMARK  158  A    between atoms: _370  and  _493
REMARK  159  A    between atoms: _371  and  _373
REMARK  160  A    between atoms: _373  and  _374
REMARK  161  A    between atoms: _373  and  _376
REMARK  162  A    between atoms: _376  and  _377
REMARK  163  A    between atoms: _377  and  _378
REMARK  164  A    between atoms: _383  and  _385
REMARK  165  A    between atoms: _385  and  _386
REMARK  166  A    between atoms: _388  and  _390
REMARK  167  A    between atoms: _390  and  _391
REMARK  168  A    between atoms: _390  and  _393
REMARK  169  A    between atoms: _393  and  _394
REMARK  170  A    between atoms: _397  and  _399
REMARK  171  A    between atoms: _399  and  _400
REMARK  172  A    between atoms: _399  and  _402
REMARK  173  A    between atoms: _402  and  _403
REMARK  174  A    between atoms: _405  and  _407
REMARK  175  A    between atoms: _407  and  _408
REMARK  176  A    between atoms: _410  and  _412
REMARK  177  A    between atoms: _412  and  _413
REMARK  178  A    between atoms: _415  and  _417
REMARK  179  A    between atoms: _417  and  _418
REMARK  180  A    between atoms: _417  and  _420
REMARK  181  A    between atoms: _420  and  _421
REMARK  182  A    between atoms: _426  and  _428
REMARK  183  A    between atoms: _428  and  _429
REMARK  184  A    between atoms: _428  and  _431
REMARK  185  A    between atoms: _431  and  _432
REMARK  186  A    between atoms: _435  and  _437
REMARK  187  A    between atoms: _437  and  _438
REMARK  188  A    between atoms: _437  and  _440
REMARK  189  A    between atoms: _443  and  _445
REMARK  190  A    between atoms: _445  and  _446
REMARK  191  A    between atoms: _445  and  _448
REMARK  192  A    between atoms: _448  and  _449
REMARK  193  A    between atoms: _451  and  _453
REMARK  194  A    between atoms: _453  and  _454
REMARK  195  A    between atoms: _453  and  _456
REMARK  196  A    between atoms: _456  and  _457
REMARK  197  A    between atoms: _467  and  _469
REMARK  198  A    between atoms: _469  and  _470
REMARK  199  A    between atoms: _472  and  _474
REMARK  200  A    between atoms: _474  and  _475
REMARK  201  A    between atoms: _474  and  _477
REMARK  202  A    between atoms: _477  and  _478
REMARK  203  A    between atoms: _478  and  _479
REMARK  204  A    between atoms: _482  and  _484
REMARK  205  A    between atoms: _484  and  _485
REMARK  206  A    between atoms: _487  and  _489
REMARK  207  A    between atoms: _489  and  _490
REMARK  208  A    between atoms: _489  and  _492
REMARK  209  A    between atoms: _492  and  _493
REMARK  210  A    between atoms: _494  and  _496
REMARK  211  A    between atoms: _496  and  _497
REMARK  212  A    between atoms: _500  and  _502
REMARK  213  A    between atoms: _502  and  _503
REMARK  214  A    between atoms: _502  and  _505
REMARK  215  A    between atoms: _505  and  _506
REMARK  216  A    between atoms: _506  and  _507
REMARK  217  A    between atoms: _507  and  _508
REMARK  218  A    between atoms: _517  and  _519
REMARK  219  A    between atoms: _519  and  _520
REMARK  220  A    between atoms: _519  and  _522
REMARK  221  A    between atoms: _522  and  _523
REMARK  222  A    between atoms: _523  and  _524
REMARK  223  A    between atoms: _524  and  _525
REMARK  224  A    between atoms: _525  and  _526
REMARK  225  A    between atoms: _530  and  _532
REMARK  226  A    between atoms: _532  and  _533
REMARK  227  A    between atoms: _532  and  _535
REMARK  228  A    between atoms: _535  and  _536
REMARK  229  A    between atoms: _541  and  _542
REMARK  230  A    between atoms: _544  and  _546
REMARK  231  A    between atoms: _546  and  _547
REMARK  232  A    between atoms: _549  and  _551
REMARK  233  A    between atoms: _551  and  _552
REMARK  234  A    between atoms: _551  and  _554
REMARK  235  A    between atoms: _554  and  _555
REMARK  236  A    between atoms: _558  and  _560
REMARK  237  A    between atoms: _560  and  _561
REMARK  238  A    between atoms: _560  and  _563
REMARK  239  A    between atoms: _563  and  _564
REMARK  240  A    between atoms: _569  and  _570
REMARK  241  A    between atoms: _572  and  _574
REMARK  242  A    between atoms: _574  and  _575
REMARK  243  A    between atoms: _574  and  _577
REMARK  244  A    between atoms: _577  and  _578
REMARK                            x       y       z     vdW  Elec       q    Type
REMARK                         _______ _______ _______ _____ _____    ______ ____
ROOT
ATOM      1  C   GLY A   3      15.202  60.499   9.927  0.00  0.00    +0.243 C 
ATOM      2  O   GLY A   3      15.699  59.691  10.736  0.00  0.00    -0.273 OA
ATOM      3  N   ILE A   4      14.720  60.126   8.713  0.00  0.00    -0.297 N 
ATOM      4  H   ILE A   4      14.343  60.861   8.081  0.00  0.00    +0.150 HD
ENDROOT
BRANCH   3   5
ATOM      5  CA  ILE A   4      14.707  58.737   8.255  0.00  0.00    +0.149 C 
BRANCH   5   6
ATOM      6  C   ILE A   4      15.733  58.518   7.159  0.00  0.00    +0.241 C 
ATOM      7  N   TYR A   5      16.576  57.494   7.352  0.00  0.00    -0.297 N 
ATOM      8  H   TYR A   5      16.439  56.874   8.176  0.00  0.00    +0.150 HD
ATOM      9  O   ILE A   4      15.740  59.237   6.151  0.00  0.00    -0.273 OA
BRANCH   7  10
ATOM     10  CA  TYR A   5      17.680  57.227   6.437  0.00  0.00    +0.153 C 
BRANCH  10  11
ATOM     11  C   TYR A   5      17.596  55.843   5.879  0.00  0.00    +0.241 C 
ATOM     12  O   TYR A   5      17.199  54.917   6.589  0.00  0.00    -0.273 OA
ATOM     13  N   THR A   6      18.041  55.644   4.635  0.00  0.00    -0.296 N 
ATOM     14  H   THR A   6      18.321  56.457   4.050  0.00  0.00    +0.150 HD
BRANCH  13  15
ATOM     15  CA  THR A   6      18.138  54.281   4.087  0.00  0.00    +0.164 C 
BRANCH  15  16
ATOM     16  C   THR A   6      19.309  53.605   4.807  0.00  0.00    +0.229 C 
ATOM     17  O   THR A   6      20.357  54.243   5.007  0.00  0.00    -0.286 OA
ENDBRANCH  15  16
BRANCH  15  18
ATOM     18  CB  THR A   6      18.451  54.315   2.580  0.00  0.00    +0.136 C 
ATOM     19  CG2 THR A   6      18.474  52.900   1.959  0.00  0.00    +0.034 C 
BRANCH  18  20
ATOM     20  OG1 THR A   6      17.431  55.141   1.975  0.00  0.00    -0.382 OA
ATOM     21  HG1 THR A   6      17.588  55.195   0.999  0.00  0.00    +0.210 HD
ENDBRANCH  18  20
ENDBRANCH  15  18
ENDBRANCH  13  15
ENDBRANCH  10  11
BRANCH  10  22
ATOM     22  CB  TYR A   5      19.012  57.361   7.230  0.00  0.00    +0.055 C 
BRANCH  22  23
ATOM     23  CG  TYR A   5      19.273  58.755   7.760  0.00  0.00    -0.020 A 
ATOM     24  CD2 TYR A   5      18.638  59.220   8.920  0.00  0.00    -0.001 A 
ATOM     25  CE2 TYR A   5      18.800  60.534   9.357  0.00  0.00    +0.036 A 
ATOM     26  CZ  TYR A   5      19.663  61.383   8.664  0.00  0.00    +0.134 A 
ATOM     27  CE1 TYR A   5      20.359  60.915   7.559  0.00  0.00    +0.036 A 
ATOM     28  CD1 TYR A   5      20.140  59.626   7.094  0.00  0.00    -0.001 A 
BRANCH  26  29
ATOM     29  OH  TYR A   5      19.899  62.671   9.077  0.00  0.00    -0.506 OA
ATOM     30  HH  TYR A   5      19.047  63.176   9.083  0.00  0.00    +0.292 HD
ENDBRANCH  26  29
ENDBRANCH  22  23
ENDBRANCH  10  22
ENDBRANCH   7  10
ENDBRANCH   5   6
BRANCH   5  31
ATOM     31  CB  ILE A   4      13.323  58.180   7.900  0.00  0.00    +0.027 C 
ATOM     32  CG2 ILE A   4      13.354  56.625   7.783  0.00  0.00    +0.002 C 
BRANCH  31  33
ATOM     33  CG1 ILE A   4      12.187  58.749   8.849  0.00  0.00    +0.002 C 
ATOM     34  CD1 ILE A   4      12.268  58.341  10.337  0.00  0.00    +0.000 C 
ENDBRANCH  31  33
ENDBRANCH   5  31
ENDBRANCH   3   5
BRANCH   1  35
ATOM     35  CA  GLY A   3      15.140  61.977  10.260  0.00  0.00    +0.176 C 
BRANCH  35  37
ATOM     36  C   TYR A   2      13.451  62.134  11.980  0.00  0.00    +0.241 C 
ATOM     37  N   GLY A   3      14.724  62.117  11.661  0.00  0.00    -0.295 N 
ATOM     38  H   GLY A   3      15.444  62.203  12.407  0.00  0.00    +0.150 HD
ATOM     39  O   TYR A   2      12.568  62.127  11.128  0.00  0.00    -0.273 OA
BRANCH  36  40
ATOM     40  CA  TYR A   2      13.131  62.123  13.498  0.00  0.00    +0.153 C 
BRANCH  40  43
ATOM     41  C   LYS A   1      11.253  63.439  14.443  0.00  0.00    +0.238 C 
ATOM     42  O   LYS A   1      11.974  64.328  14.916  0.00  0.00    -0.274 OA
ATOM     43  N   TYR A   2      11.717  62.382  13.752  0.00  0.00    -0.297 N 
ATOM     44  H   TYR A   2      11.023  61.706  13.374  0.00  0.00    +0.150 HD
BRANCH  41  45
ATOM     45  CA  LYS A   1       9.746  63.546  14.628  0.00  0.00    +0.145 C 
BRANCH  45  46
ATOM     46  N   LYS A   1       9.491  64.217  15.900  0.00  0.00    -0.238 NA
ATOM     47  H   LYS A   1       9.977  65.114  16.104  0.00  0.00    +0.142 HD
ENDBRANCH  45  46
BRANCH  45  48
ATOM     48  CB  LYS A   1       9.104  64.317  13.441  0.00  0.00    +0.026 C 
BRANCH  48  49
ATOM     49  CG  LYS A   1       7.567  64.279  13.412  0.00  0.00    -0.000 C 
BRANCH  49  50
ATOM     50  CD  LYS A   1       6.959  62.903  13.082  0.00  0.00    -0.024 C 
BRANCH  50  51
ATOM     51  CE  LYS A   1       5.443  62.860  13.244  0.00  0.00    -0.086 C 
BRANCH  51  52
ATOM     52  NZ  LYS A   1       5.052  62.944  14.664  0.00  0.00    +0.380 N 
ATOM     53  HZ1 LYS A   1       5.463  62.142  15.184  0.00  0.00    -0.089 HD
ATOM     54  HZ2 LYS A   1       5.403  63.836  15.067  0.00  0.00    -0.089 HD
ATOM     55  HZ3 LYS A   1       4.015  62.912  14.739  0.00  0.00    -0.089 HD
ENDBRANCH  51  52
ENDBRANCH  50  51
ENDBRANCH  49  50
ENDBRANCH  48  49
ENDBRANCH  45  48
ENDBRANCH  41  45
ENDBRANCH  40  43
BRANCH  40  56
ATOM     56  CB  TYR A   2      13.553  60.777  14.115  0.00  0.00    +0.055 C 
BRANCH  56  57
ATOM     57  CG  TYR A   2      13.299  60.744  15.608  0.00  0.00    -0.020 A 
ATOM     58  CD2 TYR A   2      14.116  61.450  16.486  0.00  0.00    -0.001 A 
ATOM     59  CE2 TYR A   2      13.870  61.451  17.859  0.00  0.00    +0.036 A 
ATOM     60  CZ  TYR A   2      12.790  60.740  18.359  0.00  0.00    +0.134 A 
ATOM     61  CE1 TYR A   2      11.943  60.064  17.498  0.00  0.00    +0.036 A 
ATOM     62  CD1 TYR A   2      12.218  60.039  16.135  0.00  0.00    -0.001 A 
BRANCH  60  63
ATOM     63  OH  TYR A   2      12.535  60.723  19.712  0.00  0.00    -0.506 OA
ATOM     64  HH  TYR A   2      11.644  61.119  19.884  0.00  0.00    +0.292 HD
ENDBRANCH  60  63
ENDBRANCH  56  57
ENDBRANCH  40  56
ENDBRANCH  36  40
ENDBRANCH  35  37
ENDBRANCH   1  35
TORSDOF 27
REMARK  Name = ../refined-set-2016/2xbv/2xbv_pocket.pdb
REMARK  244 active torsions:
REMARK  status: ('A' for Active; 'I' for Inactive)
REMARK    1  A    between atoms: _1  and  _5
REMARK    2  A    between atoms: _5  and  _6
REMARK    3  A    between atoms: _5  and  _8
REMARK    4  A    between atoms: _8  and  _9
REMARK    5  A    between atoms: _12  and  _14
REMARK    6  A    between atoms: _14  and  _15
REMARK    7  A    between atoms: _14  and  _17
REMARK    8  A    between atoms: _20  and  _22
REMARK    9  A    between atoms: _22  and  _23
REMARK   10  A    between atoms: _22  and  _25
REMARK   11  A    between atoms: _25  and  _26
REMARK   12  A    between atoms: _31  and  _33
REMARK   13  A    between atoms: _33  and  _34
REMARK   14  A    between atoms: _33  and  _36
REMARK   15  A    between atoms: _36  and  _37
REMARK   16  A    between atoms: _37  and  _38
REMARK   17  A    between atoms: _43  and  _45
REMARK   18  A    between atoms: _45  and  _46
REMARK   19  A    between atoms: _45  and  _48
REMARK   20  A    between atoms: _48  and  _49
REMARK   21  A    between atoms: _55  and  _57
REMARK   22  A    between atoms: _57  and  _58
REMARK   23  A    between atoms: _57  and  _60
REMARK   24  A    between atoms: _60  and  _61
REMARK   25  A    between atoms: _64  and  _66
REMARK   26  A    between atoms: _66  and  _67
REMARK   27  A    between atoms: _66  and  _69
REMARK   28  A    between atoms: _69  and  _70
REMARK   29  A    between atoms: _70  and  _71
REMARK   30  A    between atoms: _71  and  _72
REMARK   31  A    between atoms: _72  and  _73
REMARK   32  A    between atoms: _77  and  _79
REMARK   33  A    between atoms: _79  and  _80
REMARK   34  A    between atoms: _79  and  _82
REMARK   35  A    between atoms: _82  and  _83
REMARK   36  A    between atoms: _83  and  _84
REMARK   37  A    between atoms: _87  and  _89
REMARK   38  A    between atoms: _89  and  _90
REMARK   39  A    between atoms: _89  and  _92
REMARK   40  A    between atoms: _92  and  _93
REMARK   41  A    between atoms: _96  and  _98
REMARK   42  A    between atoms: _98  and  _99
REMARK   43  A    between atoms: _98  and  _101
REMARK   44  A    between atoms: _101  and  _102
REMARK   45  A    between atoms: _107  and  _108
REMARK   46  A    between atoms: _110  and  _112
REMARK   47  A    between atoms: _112  and  _113
REMARK   48  A    between atoms: _112  and  _115
REMARK   49  A    between atoms: _115  and  _116
REMARK   50  A    between atoms: _119  and  _121
REMARK   51  A    between atoms: _121  and  _122
REMARK   52  A    between atoms: _121  and  _124
REMARK   53  A    between atoms: _124  and  _125
REMARK   54  A    between atoms: _128  and  _130
REMARK   55  A    between atoms: _130  and  _131
REMARK   56  A    between atoms: _130  and  _133
REMARK   57  A    between atoms: _136  and  _138
REMARK   58  A    between atoms: _138  and  _139
REMARK   59  A    between atoms: _141  and  _143
REMARK   60  A    between atoms: _143  and  _144
REMARK   61  A    between atoms: _143  and  _146
REMARK   62  A    between atoms: _146  and  _147
REMARK   63  A    between atoms: _147  and  _148
REMARK   64  A    between atoms: _148  and  _149
REMARK   65  A    between atoms: _158  and  _160
REMARK   66  A    between atoms: _160  and  _161
REMARK   67  A    between atoms: _160  and  _163
REMARK   68  A    between atoms: _163  and  _164
REMARK   69  A    between atoms: _167  and  _169
REMARK   70  A    between atoms: _169  and  _170
REMARK   71  A    between atoms: _169  and  _172
REMARK   72  A    between atoms: _172  and  _173
REMARK   73  A    between atoms: _178  and  _180
REMARK   74  A    between atoms: _180  and  _181
REMARK   75  A    between atoms: _180  and  _183
REMARK   76  A    between atoms: _183  and  _184
REMARK   77  A    between atoms: _184  and  _185
REMARK   78  A    between atoms: _188  and  _190
REMARK   79  A    between atoms: _190  and  _191
REMARK   80  A    between atoms: _190  and  _193
REMARK   81  A    between atoms: _193  and  _194
REMARK   82  A    between atoms: _194  and  _195
REMARK   83  A    between atoms: _195  and  _196
REMARK   84  A    between atoms: _196  and  _197
REMARK   85  A    between atoms: _201  and  _203
REMARK   86  A    between atoms: _203  and  _204
REMARK   87  A    between atoms: _206  and  _208
REMARK   88  A    between atoms: _208  and  _209
REMARK   89  A    between atoms: _208  and  _211
REMARK   90  A    between atoms: _212  and  _213
REMARK   91  A    between atoms: _216  and  _218
REMARK   92  A    between atoms: _218  and  _219
REMARK   93  A    between atoms: _218  and  _221
REMARK   94  A    between atoms: _221  and  _222
REMARK   95  A    between atoms: _222  and  _223
REMARK   96  A    between atoms: _228  and  _230
REMARK   97  A    between atoms: _230  and  _231
REMARK   98  A    between atoms: _230  and  _233
REMARK   99  A    between atoms: _233  and  _234
REMARK  100  A    between atoms: _237  and  _239
REMARK  101  A    between atoms: _239  and  _240
REMARK  102  A    between atoms: _239  and  _242
REMARK  103  A    between atoms: _245  and  _247
REMARK  104  A    between atoms: _247  and  _248
REMARK  105  A    between atoms: _247  and  _250
REMARK  106  A    between atoms: _250  and  _251
REMARK  107  A    between atoms: _253  and  _255
REMARK  108  A    between atoms: _255  and  _256
REMARK  109  A    between atoms: _255  and  _258
REMARK  110  A    between atoms: _258  and  _259
REMARK  111  A    between atoms: _261  and  _263
REMARK  112  A    between atoms: _263  and  _264
REMARK  113  A    between atoms: _263  and  _266
REMARK  114  A    between atoms: _266  and  _267
REMARK  115  A    between atoms: _273  and  _275
REMARK  116  A    between atoms: _275  and  _276
REMARK  117  A    between atoms: _275  and  _278
REMARK  118  A    between atoms: _278  and  _279
REMARK  119  A    between atoms: _282  and  _284
REMARK  120  A    between atoms: _284  and  _285
REMARK  121  A    between atoms: _284  and  _287
REMARK  122  A    between atoms: _287  and  _288
REMARK  123  A    between atoms: _291  and  _293
REMARK  124  A    between atoms: _293  and  _294
REMARK  125  A    between atoms: _293  and  _296
REMARK  126  A    between atoms: _296  and  _297
REMARK  127  A    between atoms: _300  and  _302
REMARK  128  A    between atoms: _302  and  _303
REMARK  129  A    between atoms: _302  and  _305
REMARK  130  A    between atoms: _305  and  _306
REMARK  131  A    between atoms: _306  and  _307
REMARK  132  A    between atoms: _309  and  _311
REMARK  133  A    between atoms: _311  and  _312
REMARK  134  A    between atoms: _311  and  _314
REMARK  135  A    between atoms: _314  and  _315
REMARK  136  A    between atoms: _321  and  _323
REMARK  137  A    between atoms: _323  and  _324
REMARK  138  A    between atoms: _323  and  _326
REMARK  139  A    between atoms: _328  and  _330
REMARK  140  A    between atoms: _330  and  _331
REMARK  141  A    between atoms: _334  and  _336
REMARK  142  A    between atoms: _336  and  _337
REMARK  143  A    between atoms: _339  and  _341
REMARK  144  A    between atoms: _341  and  _342
REMARK  145  A    between atoms: _341  and  _344
REMARK  146  A    between atoms: _344  and  _345
REMARK  147  A    between atoms: _345  and  _346
REMARK  148  A    between atoms: _349  and  _351
REMARK  149  A    between atoms: _351  and  _352
REMARK  150  A    between atoms: _351  and  _354
REMARK  151  A    between atoms: _354  and  _355
REMARK  152  A    between atoms: _358  and  _360
REMARK  153  A    between atoms: _360  and  _361
REMARK  154  A    between atoms: _364  and  _366
REMARK  155  A    between atoms: _366  and  _367
REMARK  156  A    between atoms: _366  and  _369
REMARK  157  A    between atoms: _369  and  _370
REMARK  158  A    between atoms: _370  and  _493
REMARK  159  A    between atoms: _371  and  _373
REMARK  160  A    between atoms: _373  and  _374
REMARK  161  A    between atoms: _373  and  _376
REMARK  162  A    between atoms: _376  and  _377
REMARK  163  A    between atoms: _377  and  _378
REMARK  164  A    between atoms: _383  and  _385
REMARK  165  A    between atoms: _385  and  _386
REMARK  166  A    between atoms: _388  and  _390
REMARK  167  A    between atoms: _390  and  _391
REMARK  168  A    between atoms: _390  and  _393
REMARK  169  A    between atoms: _393  and  _394
REMARK  170  A    between atoms: _397  and  _399
REMARK  171  A    between atoms: _399  and  _400
REMARK  172  A    between atoms: _399  and  _402
REMARK  173  A    between atoms: _402  and  _403
REMARK  174  A    between atoms: _405  and  _407
REMARK  175  A    between atoms: _407  and  _408
REMARK  176  A    between atoms: _410  and  _412
REMARK  177  A    between atoms: _412  and  _413
REMARK  178  A    between atoms: _415  and  _417
REMARK  179  A    between atoms: _417  and  _418
REMARK  180  A    between atoms: _417  and  _420
REMARK  181  A    between atoms: _420  and  _421
REMARK  182  A    between atoms: _426  and  _428
REMARK  183  A    between atoms: _428  and  _429
REMARK  184  A    between atoms: _428  and  _431
REMARK  185  A    between atoms: _431  and  _432
REMARK  186  A    between atoms: _435  and  _437
REMARK  187  A    between atoms: _437  and  _438
REMARK  188  A    between atoms: _437  and  _440
REMARK  189  A    between atoms: _443  and  _445
REMARK  190  A    between atoms: _445  and  _446
REMARK  191  A    between atoms: _445  and  _448
REMARK  192  A    between atoms: _448  and  _449
REMARK  193  A    between atoms: _451  and  _453
REMARK  194  A    between atoms: _453  and  _454
REMARK  195  A    between atoms: _453  and  _456
REMARK  196  A    between atoms: _456  and  _457
REMARK  197  A    between atoms: _467  and  _469
REMARK  198  A    between atoms: _469  and  _470
REMARK  199  A    between atoms: _472  and  _474
REMARK  200  A    between atoms: _474  and  _475
REMARK  201  A    between atoms: _474  and  _477
REMARK  202  A    between atoms: _477  and  _478
REMARK  203  A    between atoms: _478  and  _479
REMARK  204  A    between atoms: _482  and  _484
REMARK  205  A    between atoms: _484  and  _485
REMARK  206  A    between atoms: _487  and  _489
REMARK  207  A    between atoms: _489  and  _490
REMARK  208  A    between atoms: _489  and  _492
REMARK  209  A    between atoms: _492  and  _493
REMARK  210  A    between atoms: _494  and  _496
REMARK  211  A    between atoms: _496  and  _497
REMARK  212  A    between atoms: _500  and  _502
REMARK  213  A    between atoms: _502  and  _503
REMARK  214  A    between atoms: _502  and  _505
REMARK  215  A    between atoms: _505  and  _506
REMARK  216  A    between atoms: _506  and  _507
REMARK  217  A    between atoms: _507  and  _508
REMARK  218  A    between atoms: _517  and  _519
REMARK  219  A    between atoms: _519  and  _520
REMARK  220  A    between atoms: _519  and  _522
REMARK  221  A    between atoms: _522  and  _523
REMARK  222  A    between atoms: _523  and  _524
REMARK  223  A    between atoms: _524  and  _525
REMARK  224  A    between atoms: _525  and  _526
REMARK  225  A    between atoms: _530  and  _532
REMARK  226  A    between atoms: _532  and  _533
REMARK  227  A    between atoms: _532  and  _535
REMARK  228  A    between atoms: _535  and  _536
REMARK  229  A    between atoms: _541  and  _542
REMARK  230  A    between atoms: _544  and  _546
REMARK  231  A    between atoms: _546  and  _547
REMARK  232  A    between atoms: _549  and  _551
REMARK  233  A    between atoms: _551  and  _552
REMARK  234  A    between atoms: _551  and  _554
REMARK  235  A    between atoms: _554  and  _555
REMARK  236  A    between atoms: _558  and  _560
REMARK  237  A    between atoms: _560  and  _561
REMARK  238  A    between atoms: _560  and  _563
REMARK  239  A    between atoms: _563  and  _564
REMARK  240  A    between atoms: _569  and  _570
REMARK  241  A    between atoms: _572  and  _574
REMARK  242  A    between atoms: _574  and  _575
REMARK  243  A    between atoms: _574  and  _577
REMARK  244  A    between atoms: _577  and  _578
REMARK                            x       y       z     vdW  Elec       q    Type
REMARK                         _______ _______ _______ _____ _____    ______ ____
ROOT
ATOM      1  O   HOH     1      15.410  67.076  -2.529  0.00  0.00    +0.000 OA
ENDROOT
TORSDOF 0
REMARK  Name = ../refined-set-2016/2xbv/2xbv_pocket.pdb
REMARK  244 active torsions:
REMARK  status: ('A' for Active; 'I' for Inactive)
REMARK    1  A    between atoms: _1  and  _5
REMARK    2  A    between atoms: _5  and  _6
REMARK    3  A    between atoms: _5  and  _8
REMARK    4  A    between atoms: _8  and  _9
REMARK    5  A    between atoms: _12  and  _14
REMARK    6  A    between atoms: _14  and  _15
REMARK    7  A    between atoms: _14  and  _17
REMARK    8  A    between atoms: _20  and  _22
REMARK    9  A    between atoms: _22  and  _23
REMARK   10  A    between atoms: _22  and  _25
REMARK   11  A    between atoms: _25  and  _26
REMARK   12  A    between atoms: _31  and  _33
REMARK   13  A    between atoms: _33  and  _34
REMARK   14  A    between atoms: _33  and  _36
REMARK   15  A    between atoms: _36  and  _37
REMARK   16  A    between atoms: _37  and  _38
REMARK   17  A    between atoms: _43  and  _45
REMARK   18  A    between atoms: _45  and  _46
REMARK   19  A    between atoms: _45  and  _48
REMARK   20  A    between atoms: _48  and  _49
REMARK   21  A    between atoms: _55  and  _57
REMARK   22  A    between atoms: _57  and  _58
REMARK   23  A    between atoms: _57  and  _60
REMARK   24  A    between atoms: _60  and  _61
REMARK   25  A    between atoms: _64  and  _66
REMARK   26  A    between atoms: _66  and  _67
REMARK   27  A    between atoms: _66  and  _69
REMARK   28  A    between atoms: _69  and  _70
REMARK   29  A    between atoms: _70  and  _71
REMARK   30  A    between atoms: _71  and  _72
REMARK   31  A    between atoms: _72  and  _73
REMARK   32  A    between atoms: _77  and  _79
REMARK   33  A    between atoms: _79  and  _80
REMARK   34  A    between atoms: _79  and  _82
REMARK   35  A    between atoms: _82  and  _83
REMARK   36  A    between atoms: _83  and  _84
REMARK   37  A    between atoms: _87  and  _89
REMARK   38  A    between atoms: _89  and  _90
REMARK   39  A    between atoms: _89  and  _92
REMARK   40  A    between atoms: _92  and  _93
REMARK   41  A    between atoms: _96  and  _98
REMARK   42  A    between atoms: _98  and  _99
REMARK   43  A    between atoms: _98  and  _101
REMARK   44  A    between atoms: _101  and  _102
REMARK   45  A    between atoms: _107  and  _108
REMARK   46  A    between atoms: _110  and  _112
REMARK   47  A    between atoms: _112  and  _113
REMARK   48  A    between atoms: _112  and  _115
REMARK   49  A    between atoms: _115  and  _116
REMARK   50  A    between atoms: _119  and  _121
REMARK   51  A    between atoms: _121  and  _122
REMARK   52  A    between atoms: _121  and  _124
REMARK   53  A    between atoms: _124  and  _125
REMARK   54  A    between atoms: _128  and  _130
REMARK   55  A    between atoms: _130  and  _131
REMARK   56  A    between atoms: _130  and  _133
REMARK   57  A    between atoms: _136  and  _138
REMARK   58  A    between atoms: _138  and  _139
REMARK   59  A    between atoms: _141  and  _143
REMARK   60  A    between atoms: _143  and  _144
REMARK   61  A    between atoms: _143  and  _146
REMARK   62  A    between atoms: _146  and  _147
REMARK   63  A    between atoms: _147  and  _148
REMARK   64  A    between atoms: _148  and  _149
REMARK   65  A    between atoms: _158  and  _160
REMARK   66  A    between atoms: _160  and  _161
REMARK   67  A    between atoms: _160  and  _163
REMARK   68  A    between atoms: _163  and  _164
REMARK   69  A    between atoms: _167  and  _169
REMARK   70  A    between atoms: _169  and  _170
REMARK   71  A    between atoms: _169  and  _172
REMARK   72  A    between atoms: _172  and  _173
REMARK   73  A    between atoms: _178  and  _180
REMARK   74  A    between atoms: _180  and  _181
REMARK   75  A    between atoms: _180  and  _183
REMARK   76  A    between atoms: _183  and  _184
REMARK   77  A    between atoms: _184  and  _185
REMARK   78  A    between atoms: _188  and  _190
REMARK   79  A    between atoms: _190  and  _191
REMARK   80  A    between atoms: _190  and  _193
REMARK   81  A    between atoms: _193  and  _194
REMARK   82  A    between atoms: _194  and  _195
REMARK   83  A    between atoms: _195  and  _196
REMARK   84  A    between atoms: _196  and  _197
REMARK   85  A    between atoms: _201  and  _203
REMARK   86  A    between atoms: _203  and  _204
REMARK   87  A    between atoms: _206  and  _208
REMARK   88  A    between atoms: _208  and  _209
REMARK   89  A    between atoms: _208  and  _211
REMARK   90  A    between atoms: _212  and  _213
REMARK   91  A    between atoms: _216  and  _218
REMARK   92  A    between atoms: _218  and  _219
REMARK   93  A    between atoms: _218  and  _221
REMARK   94  A    between atoms: _221  and  _222
REMARK   95  A    between atoms: _222  and  _223
REMARK   96  A    between atoms: _228  and  _230
REMARK   97  A    between atoms: _230  and  _231
REMARK   98  A    between atoms: _230  and  _233
REMARK   99  A    between atoms: _233  and  _234
REMARK  100  A    between atoms: _237  and  _239
REMARK  101  A    between atoms: _239  and  _240
REMARK  102  A    between atoms: _239  and  _242
REMARK  103  A    between atoms: _245  and  _247
REMARK  104  A    between atoms: _247  and  _248
REMARK  105  A    between atoms: _247  and  _250
REMARK  106  A    between atoms: _250  and  _251
REMARK  107  A    between atoms: _253  and  _255
REMARK  108  A    between atoms: _255  and  _256
REMARK  109  A    between atoms: _255  and  _258
REMARK  110  A    between atoms: _258  and  _259
REMARK  111  A    between atoms: _261  and  _263
REMARK  112  A    between atoms: _263  and  _264
REMARK  113  A    between atoms: _263  and  _266
REMARK  114  A    between atoms: _266  and  _267
REMARK  115  A    between atoms: _273  and  _275
REMARK  116  A    between atoms: _275  and  _276
REMARK  117  A    between atoms: _275  and  _278
REMARK  118  A    between atoms: _278  and  _279
REMARK  119  A    between atoms: _282  and  _284
REMARK  120  A    between atoms: _284  and  _285
REMARK  121  A    between atoms: _284  and  _287
REMARK  122  A    between atoms: _287  and  _288
REMARK  123  A    between atoms: _291  and  _293
REMARK  124  A    between atoms: _293  and  _294
REMARK  125  A    between atoms: _293  and  _296
REMARK  126  A    between atoms: _296  and  _297
REMARK  127  A    between atoms: _300  and  _302
REMARK  128  A    between atoms: _302  and  _303
REMARK  129  A    between atoms: _302  and  _305
REMARK  130  A    between atoms: _305  and  _306
REMARK  131  A    between atoms: _306  and  _307
REMARK  132  A    between atoms: _309  and  _311
REMARK  133  A    between atoms: _311  and  _312
REMARK  134  A    between atoms: _311  and  _314
REMARK  135  A    between atoms: _314  and  _315
REMARK  136  A    between atoms: _321  and  _323
REMARK  137  A    between atoms: _323  and  _324
REMARK  138  A    between atoms: _323  and  _326
REMARK  139  A    between atoms: _328  and  _330
REMARK  140  A    between atoms: _330  and  _331
REMARK  141  A    between atoms: _334  and  _336
REMARK  142  A    between atoms: _336  and  _337
REMARK  143  A    between atoms: _339  and  _341
REMARK  144  A    between atoms: _341  and  _342
REMARK  145  A    between atoms: _341  and  _344
REMARK  146  A    between atoms: _344  and  _345
REMARK  147  A    between atoms: _345  and  _346
REMARK  148  A    between atoms: _349  and  _351
REMARK  149  A    between atoms: _351  and  _352
REMARK  150  A    between atoms: _351  and  _354
REMARK  151  A    between atoms: _354  and  _355
REMARK  152  A    between atoms: _358  and  _360
REMARK  153  A    between atoms: _360  and  _361
REMARK  154  A    between atoms: _364  and  _366
REMARK  155  A    between atoms: _366  and  _367
REMARK  156  A    between atoms: _366  and  _369
REMARK  157  A    between atoms: _369  and  _370
REMARK  158  A    between atoms: _370  and  _493
REMARK  159  A    between atoms: _371  and  _373
REMARK  160  A    between atoms: _373  and  _374
REMARK  161  A    between atoms: _373  and  _376
REMARK  162  A    between atoms: _376  and  _377
REMARK  163  A    between atoms: _377  and  _378
REMARK  164  A    between atoms: _383  and  _385
REMARK  165  A    between atoms: _385  and  _386
REMARK  166  A    between atoms: _388  and  _390
REMARK  167  A    between atoms: _390  and  _391
REMARK  168  A    between atoms: _390  and  _393
REMARK  169  A    between atoms: _393  and  _394
REMARK  170  A    between atoms: _397  and  _399
REMARK  171  A    between atoms: _399  and  _400
REMARK  172  A    between atoms: _399  and  _402
REMARK  173  A    between atoms: _402  and  _403
REMARK  174  A    between atoms: _405  and  _407
REMARK  175  A    between atoms: _407  and  _408
REMARK  176  A    between atoms: _410  and  _412
REMARK  177  A    between atoms: _412  and  _413
REMARK  178  A    between atoms: _415  and  _417
REMARK  179  A    between atoms: _417  and  _418
REMARK  180  A    between atoms: _417  and  _420
REMARK  181  A    between atoms: _420  and  _421
REMARK  182  A    between atoms: _426  and  _428
REMARK  183  A    between atoms: _428  and  _429
REMARK  184  A    between atoms: _428  and  _431
REMARK  185  A    between atoms: _431  and  _432
REMARK  186  A    between atoms: _435  and  _437
REMARK  187  A    between atoms: _437  and  _438
REMARK  188  A    between atoms: _437  and  _440
REMARK  189  A    between atoms: _443  and  _445
REMARK  190  A    between atoms: _445  and  _446
REMARK  191  A    between atoms: _445  and  _448
REMARK  192  A    between atoms: _448  and  _449
REMARK  193  A    between atoms: _451  and  _453
REMARK  194  A    between atoms: _453  and  _454
REMARK  195  A    between atoms: _453  and  _456
REMARK  196  A    between atoms: _456  and  _457
REMARK  197  A    between atoms: _467  and  _469
REMARK  198  A    between atoms: _469  and  _470
REMARK  199  A    between atoms: _472  and  _474
REMARK  200  A    between atoms: _474  and  _475
REMARK  201  A    between atoms: _474  and  _477
REMARK  202  A    between atoms: _477  and  _478
REMARK  203  A    between atoms: _478  and  _479
REMARK  204  A    between atoms: _482  and  _484
REMARK  205  A    between atoms: _484  and  _485
REMARK  206  A    between atoms: _487  and  _489
REMARK  207  A    between atoms: _489  and  _490
REMARK  208  A    between atoms: _489  and  _492
REMARK  209  A    between atoms: _492  and  _493
REMARK  210  A    between atoms: _494  and  _496
REMARK  211  A    between atoms: _496  and  _497
REMARK  212  A    between atoms: _500  and  _502
REMARK  213  A    between atoms: _502  and  _503
REMARK  214  A    between atoms: _502  and  _505
REMARK  215  A    between atoms: _505  and  _506
REMARK  216  A    between atoms: _506  and  _507
REMARK  217  A    between atoms: _507  and  _508
REMARK  218  A    between atoms: _517  and  _519
REMARK  219  A    between atoms: _519  and  _520
REMARK  220  A    between atoms: _519  and  _522
REMARK  221  A    between atoms: _522  and  _523
REMARK  222  A    between atoms: _523  and  _524
REMARK  223  A    between atoms: _524  and  _525
REMARK  224  A    between atoms: _525  and  _526
REMARK  225  A    between atoms: _530  and  _532
REMARK  226  A    between atoms: _532  and  _533
REMARK  227  A    between atoms: _532  and  _535
REMARK  228  A    between atoms: _535  and  _536
REMARK  229  A    between atoms: _541  and  _542
REMARK  230  A    between atoms: _544  and  _546
REMARK  231  A    between atoms: _546  and  _547
REMARK  232  A    between atoms: _549  and  _551
REMARK  233  A    between atoms: _551  and  _552
REMARK  234  A    between atoms: _551  and  _554
REMARK  235  A    between atoms: _554  and  _555
REMARK  236  A    between atoms: _558  and  _560
REMARK  237  A    between atoms: _560  and  _561
REMARK  238  A    between atoms: _560  and  _563
REMARK  239  A    between atoms: _563  and  _564
REMARK  240  A    between atoms: _569  and  _570
REMARK  241  A    between atoms: _572  and  _574
REMARK  242  A    between atoms: _574  and  _575
REMARK  243  A    between atoms: _574  and  _577
REMARK  244  A    between atoms: _577  and  _578
REMARK                            x       y       z     vdW  Elec       q    Type
REMARK                         _______ _______ _______ _____ _____    ______ ____
ROOT
ATOM      1  O   HOH     1       6.209  50.054   4.388  0.00  0.00    +0.000 OA
ENDROOT
TORSDOF 0
REMARK  Name = ../refined-set-2016/2xbv/2xbv_pocket.pdb
REMARK  244 active torsions:
REMARK  status: ('A' for Active; 'I' for Inactive)
REMARK    1  A    between atoms: _1  and  _5
REMARK    2  A    between atoms: _5  and  _6
REMARK    3  A    between atoms: _5  and  _8
REMARK    4  A    between atoms: _8  and  _9
REMARK    5  A    between atoms: _12  and  _14
REMARK    6  A    between atoms: _14  and  _15
REMARK    7  A    between atoms: _14  and  _17
REMARK    8  A    between atoms: _20  and  _22
REMARK    9  A    between atoms: _22  and  _23
REMARK   10  A    between atoms: _22  and  _25
REMARK   11  A    between atoms: _25  and  _26
REMARK   12  A    between atoms: _31  and  _33
REMARK   13  A    between atoms: _33  and  _34
REMARK   14  A    between atoms: _33  and  _36
REMARK   15  A    between atoms: _36  and  _37
REMARK   16  A    between atoms: _37  and  _38
REMARK   17  A    between atoms: _43  and  _45
REMARK   18  A    between atoms: _45  and  _46
REMARK   19  A    between atoms: _45  and  _48
REMARK   20  A    between atoms: _48  and  _49
REMARK   21  A    between atoms: _55  and  _57
REMARK   22  A    between atoms: _57  and  _58
REMARK   23  A    between atoms: _57  and  _60
REMARK   24  A    between atoms: _60  and  _61
REMARK   25  A    between atoms: _64  and  _66
REMARK   26  A    between atoms: _66  and  _67
REMARK   27  A    between atoms: _66  and  _69
REMARK   28  A    between atoms: _69  and  _70
REMARK   29  A    between atoms: _70  and  _71
REMARK   30  A    between atoms: _71  and  _72
REMARK   31  A    between atoms: _72  and  _73
REMARK   32  A    between atoms: _77  and  _79
REMARK   33  A    between atoms: _79  and  _80
REMARK   34  A    between atoms: _79  and  _82
REMARK   35  A    between atoms: _82  and  _83
REMARK   36  A    between atoms: _83  and  _84
REMARK   37  A    between atoms: _87  and  _89
REMARK   38  A    between atoms: _89  and  _90
REMARK   39  A    between atoms: _89  and  _92
REMARK   40  A    between atoms: _92  and  _93
REMARK   41  A    between atoms: _96  and  _98
REMARK   42  A    between atoms: _98  and  _99
REMARK   43  A    between atoms: _98  and  _101
REMARK   44  A    between atoms: _101  and  _102
REMARK   45  A    between atoms: _107  and  _108
REMARK   46  A    between atoms: _110  and  _112
REMARK   47  A    between atoms: _112  and  _113
REMARK   48  A    between atoms: _112  and  _115
REMARK   49  A    between atoms: _115  and  _116
REMARK   50  A    between atoms: _119  and  _121
REMARK   51  A    between atoms: _121  and  _122
REMARK   52  A    between atoms: _121  and  _124
REMARK   53  A    between atoms: _124  and  _125
REMARK   54  A    between atoms: _128  and  _130
REMARK   55  A    between atoms: _130  and  _131
REMARK   56  A    between atoms: _130  and  _133
REMARK   57  A    between atoms: _136  and  _138
REMARK   58  A    between atoms: _138  and  _139
REMARK   59  A    between atoms: _141  and  _143
REMARK   60  A    between atoms: _143  and  _144
REMARK   61  A    between atoms: _143  and  _146
REMARK   62  A    between atoms: _146  and  _147
REMARK   63  A    between atoms: _147  and  _148
REMARK   64  A    between atoms: _148  and  _149
REMARK   65  A    between atoms: _158  and  _160
REMARK   66  A    between atoms: _160  and  _161
REMARK   67  A    between atoms: _160  and  _163
REMARK   68  A    between atoms: _163  and  _164
REMARK   69  A    between atoms: _167  and  _169
REMARK   70  A    between atoms: _169  and  _170
REMARK   71  A    between atoms: _169  and  _172
REMARK   72  A    between atoms: _172  and  _173
REMARK   73  A    between atoms: _178  and  _180
REMARK   74  A    between atoms: _180  and  _181
REMARK   75  A    between atoms: _180  and  _183
REMARK   76  A    between atoms: _183  and  _184
REMARK   77  A    between atoms: _184  and  _185
REMARK   78  A    between atoms: _188  and  _190
REMARK   79  A    between atoms: _190  and  _191
REMARK   80  A    between atoms: _190  and  _193
REMARK   81  A    between atoms: _193  and  _194
REMARK   82  A    between atoms: _194  and  _195
REMARK   83  A    between atoms: _195  and  _196
REMARK   84  A    between atoms: _196  and  _197
REMARK   85  A    between atoms: _201  and  _203
REMARK   86  A    between atoms: _203  and  _204
REMARK   87  A    between atoms: _206  and  _208
REMARK   88  A    between atoms: _208  and  _209
REMARK   89  A    between atoms: _208  and  _211
REMARK   90  A    between atoms: _212  and  _213
REMARK   91  A    between atoms: _216  and  _218
REMARK   92  A    between atoms: _218  and  _219
REMARK   93  A    between atoms: _218  and  _221
REMARK   94  A    between atoms: _221  and  _222
REMARK   95  A    between atoms: _222  and  _223
REMARK   96  A    between atoms: _228  and  _230
REMARK   97  A    between atoms: _230  and  _231
REMARK   98  A    between atoms: _230  and  _233
REMARK   99  A    between atoms: _233  and  _234
REMARK  100  A    between atoms: _237  and  _239
REMARK  101  A    between atoms: _239  and  _240
REMARK  102  A    between atoms: _239  and  _242
REMARK  103  A    between atoms: _245  and  _247
REMARK  104  A    between atoms: _247  and  _248
REMARK  105  A    between atoms: _247  and  _250
REMARK  106  A    between atoms: _250  and  _251
REMARK  107  A    between atoms: _253  and  _255
REMARK  108  A    between atoms: _255  and  _256
REMARK  109  A    between atoms: _255  and  _258
REMARK  110  A    between atoms: _258  and  _259
REMARK  111  A    between atoms: _261  and  _263
REMARK  112  A    between atoms: _263  and  _264
REMARK  113  A    between atoms: _263  and  _266
REMARK  114  A    between atoms: _266  and  _267
REMARK  115  A    between atoms: _273  and  _275
REMARK  116  A    between atoms: _275  and  _276
REMARK  117  A    between atoms: _275  and  _278
REMARK  118  A    between atoms: _278  and  _279
REMARK  119  A    between atoms: _282  and  _284
REMARK  120  A    between atoms: _284  and  _285
REMARK  121  A    between atoms: _284  and  _287
REMARK  122  A    between atoms: _287  and  _288
REMARK  123  A    between atoms: _291  and  _293
REMARK  124  A    between atoms: _293  and  _294
REMARK  125  A    between atoms: _293  and  _296
REMARK  126  A    between atoms: _296  and  _297
REMARK  127  A    between atoms: _300  and  _302
REMARK  128  A    between atoms: _302  and  _303
REMARK  129  A    between atoms: _302  and  _305
REMARK  130  A    between atoms: _305  and  _306
REMARK  131  A    between atoms: _306  and  _307
REMARK  132  A    between atoms: _309  and  _311
REMARK  133  A    between atoms: _311  and  _312
REMARK  134  A    between atoms: _311  and  _314
REMARK  135  A    between atoms: _314  and  _315
REMARK  136  A    between atoms: _321  and  _323
REMARK  137  A    between atoms: _323  and  _324
REMARK  138  A    between atoms: _323  and  _326
REMARK  139  A    between atoms: _328  and  _330
REMARK  140  A    between atoms: _330  and  _331
REMARK  141  A    between atoms: _334  and  _336
REMARK  142  A    between atoms: _336  and  _337
REMARK  143  A    between atoms: _339  and  _341
REMARK  144  A    between atoms: _341  and  _342
REMARK  145  A    between atoms: _341  and  _344
REMARK  146  A    between atoms: _344  and  _345
REMARK  147  A    between atoms: _345  and  _346
REMARK  148  A    between atoms: _349  and  _351
REMARK  149  A    between atoms: _351  and  _352
REMARK  150  A    between atoms: _351  and  _354
REMARK  151  A    between atoms: _354  and  _355
REMARK  152  A    between atoms: _358  and  _360
REMARK  153  A    between atoms: _360  and  _361
REMARK  154  A    between atoms: _364  and  _366
REMARK  155  A    between atoms: _366  and  _367
REMARK  156  A    between atoms: _366  and  _369
REMARK  157  A    between atoms: _369  and  _370
REMARK  158  A    between atoms: _370  and  _493
REMARK  159  A    between atoms: _371  and  _373
REMARK  160  A    between atoms: _373  and  _374
REMARK  161  A    between atoms: _373  and  _376
REMARK  162  A    between atoms: _376  and  _377
REMARK  163  A    between atoms: _377  and  _378
REMARK  164  A    between atoms: _383  and  _385
REMARK  165  A    between atoms: _385  and  _386
REMARK  166  A    between atoms: _388  and  _390
REMARK  167  A    between atoms: _390  and  _391
REMARK  168  A    between atoms: _390  and  _393
REMARK  169  A    between atoms: _393  and  _394
REMARK  170  A    between atoms: _397  and  _399
REMARK  171  A    between atoms: _399  and  _400
REMARK  172  A    between atoms: _399  and  _402
REMARK  173  A    between atoms: _402  and  _403
REMARK  174  A    between atoms: _405  and  _407
REMARK  175  A    between atoms: _407  and  _408
REMARK  176  A    between atoms: _410  and  _412
REMARK  177  A    between atoms: _412  and  _413
REMARK  178  A    between atoms: _415  and  _417
REMARK  179  A    between atoms: _417  and  _418
REMARK  180  A    between atoms: _417  and  _420
REMARK  181  A    between atoms: _420  and  _421
REMARK  182  A    between atoms: _426  and  _428
REMARK  183  A    between atoms: _428  and  _429
REMARK  184  A    between atoms: _428  and  _431
REMARK  185  A    between atoms: _431  and  _432
REMARK  186  A    between atoms: _435  and  _437
REMARK  187  A    between atoms: _437  and  _438
REMARK  188  A    between atoms: _437  and  _440
REMARK  189  A    between atoms: _443  and  _445
REMARK  190  A    between atoms: _445  and  _446
REMARK  191  A    between atoms: _445  and  _448
REMARK  192  A    between atoms: _448  and  _449
REMARK  193  A    between atoms: _451  and  _453
REMARK  194  A    between atoms: _453  and  _454
REMARK  195  A    between atoms: _453  and  _456
REMARK  196  A    between atoms: _456  and  _457
REMARK  197  A    between atoms: _467  and  _469
REMARK  198  A    between atoms: _469  and  _470
REMARK  199  A    between atoms: _472  and  _474
REMARK  200  A    between atoms: _474  and  _475
REMARK  201  A    between atoms: _474  and  _477
REMARK  202  A    between atoms: _477  and  _478
REMARK  203  A    between atoms: _478  and  _479
REMARK  204  A    between atoms: _482  and  _484
REMARK  205  A    between atoms: _484  and  _485
REMARK  206  A    between atoms: _487  and  _489
REMARK  207  A    between atoms: _489  and  _490
REMARK  208  A    between atoms: _489  and  _492
REMARK  209  A    between atoms: _492  and  _493
REMARK  210  A    between atoms: _494  and  _496
REMARK  211  A    between atoms: _496  and  _497
REMARK  212  A    between atoms: _500  and  _502
REMARK  213  A    between atoms: _502  and  _503
REMARK  214  A    between atoms: _502  and  _505
REMARK  215  A    between atoms: _505  and  _506
REMARK  216  A    between atoms: _506  and  _507
REMARK  217  A    between atoms: _507  and  _508
REMARK  218  A    between atoms: _517  and  _519
REMARK  219  A    between atoms: _519  and  _520
REMARK  220  A    between atoms: _519  and  _522
REMARK  221  A    between atoms: _522  and  _523
REMARK  222  A    between atoms: _523  and  _524
REMARK  223  A    between atoms: _524  and  _525
REMARK  224  A    between atoms: _525  and  _526
REMARK  225  A    between atoms: _530  and  _532
REMARK  226  A    between atoms: _532  and  _533
REMARK  227  A    between atoms: _532  and  _535
REMARK  228  A    between atoms: _535  and  _536
REMARK  229  A    between atoms: _541  and  _542
REMARK  230  A    between atoms: _544  and  _546
REMARK  231  A    between atoms: _546  and  _547
REMARK  232  A    between atoms: _549  and  _551
REMARK  233  A    between atoms: _551  and  _552
REMARK  234  A    between atoms: _551  and  _554
REMARK  235  A    between atoms: _554  and  _555
REMARK  236  A    between atoms: _558  and  _560
REMARK  237  A    between atoms: _560  and  _561
REMARK  238  A    between atoms: _560  and  _563
REMARK  239  A    between atoms: _563  and  _564
REMARK  240  A    between atoms: _569  and  _570
REMARK  241  A    between atoms: _572  and  _574
REMARK  242  A    between atoms: _574  and  _575
REMARK  243  A    between atoms: _574  and  _577
REMARK  244  A    between atoms: _577  and  _578
REMARK                            x       y       z     vdW  Elec       q    Type
REMARK                         _______ _______ _______ _____ _____    ______ ____
ROOT
ATOM      1  O   HOH     1      13.907  64.904  -2.108  0.00  0.00    +0.000 OA
ENDROOT
TORSDOF 0
REMARK  Name = ../refined-set-2016/2xbv/2xbv_pocket.pdb
REMARK  244 active torsions:
REMARK  status: ('A' for Active; 'I' for Inactive)
REMARK    1  A    between atoms: _1  and  _5
REMARK    2  A    between atoms: _5  and  _6
REMARK    3  A    between atoms: _5  and  _8
REMARK    4  A    between atoms: _8  and  _9
REMARK    5  A    between atoms: _12  and  _14
REMARK    6  A    between atoms: _14  and  _15
REMARK    7  A    between atoms: _14  and  _17
REMARK    8  A    between atoms: _20  and  _22
REMARK    9  A    between atoms: _22  and  _23
REMARK   10  A    between atoms: _22  and  _25
REMARK   11  A    between atoms: _25  and  _26
REMARK   12  A    between atoms: _31  and  _33
REMARK   13  A    between atoms: _33  and  _34
REMARK   14  A    between atoms: _33  and  _36
REMARK   15  A    between atoms: _36  and  _37
REMARK   16  A    between atoms: _37  and  _38
REMARK   17  A    between atoms: _43  and  _45
REMARK   18  A    between atoms: _45  and  _46
REMARK   19  A    between atoms: _45  and  _48
REMARK   20  A    between atoms: _48  and  _49
REMARK   21  A    between atoms: _55  and  _57
REMARK   22  A    between atoms: _57  and  _58
REMARK   23  A    between atoms: _57  and  _60
REMARK   24  A    between atoms: _60  and  _61
REMARK   25  A    between atoms: _64  and  _66
REMARK   26  A    between atoms: _66  and  _67
REMARK   27  A    between atoms: _66  and  _69
REMARK   28  A    between atoms: _69  and  _70
REMARK   29  A    between atoms: _70  and  _71
REMARK   30  A    between atoms: _71  and  _72
REMARK   31  A    between atoms: _72  and  _73
REMARK   32  A    between atoms: _77  and  _79
REMARK   33  A    between atoms: _79  and  _80
REMARK   34  A    between atoms: _79  and  _82
REMARK   35  A    between atoms: _82  and  _83
REMARK   36  A    between atoms: _83  and  _84
REMARK   37  A    between atoms: _87  and  _89
REMARK   38  A    between atoms: _89  and  _90
REMARK   39  A    between atoms: _89  and  _92
REMARK   40  A    between atoms: _92  and  _93
REMARK   41  A    between atoms: _96  and  _98
REMARK   42  A    between atoms: _98  and  _99
REMARK   43  A    between atoms: _98  and  _101
REMARK   44  A    between atoms: _101  and  _102
REMARK   45  A    between atoms: _107  and  _108
REMARK   46  A    between atoms: _110  and  _112
REMARK   47  A    between atoms: _112  and  _113
REMARK   48  A    between atoms: _112  and  _115
REMARK   49  A    between atoms: _115  and  _116
REMARK   50  A    between atoms: _119  and  _121
REMARK   51  A    between atoms: _121  and  _122
REMARK   52  A    between atoms: _121  and  _124
REMARK   53  A    between atoms: _124  and  _125
REMARK   54  A    between atoms: _128  and  _130
REMARK   55  A    between atoms: _130  and  _131
REMARK   56  A    between atoms: _130  and  _133
REMARK   57  A    between atoms: _136  and  _138
REMARK   58  A    between atoms: _138  and  _139
REMARK   59  A    between atoms: _141  and  _143
REMARK   60  A    between atoms: _143  and  _144
REMARK   61  A    between atoms: _143  and  _146
REMARK   62  A    between atoms: _146  and  _147
REMARK   63  A    between atoms: _147  and  _148
REMARK   64  A    between atoms: _148  and  _149
REMARK   65  A    between atoms: _158  and  _160
REMARK   66  A    between atoms: _160  and  _161
REMARK   67  A    between atoms: _160  and  _163
REMARK   68  A    between atoms: _163  and  _164
REMARK   69  A    between atoms: _167  and  _169
REMARK   70  A    between atoms: _169  and  _170
REMARK   71  A    between atoms: _169  and  _172
REMARK   72  A    between atoms: _172  and  _173
REMARK   73  A    between atoms: _178  and  _180
REMARK   74  A    between atoms: _180  and  _181
REMARK   75  A    between atoms: _180  and  _183
REMARK   76  A    between atoms: _183  and  _184
REMARK   77  A    between atoms: _184  and  _185
REMARK   78  A    between atoms: _188  and  _190
REMARK   79  A    between atoms: _190  and  _191
REMARK   80  A    between atoms: _190  and  _193
REMARK   81  A    between atoms: _193  and  _194
REMARK   82  A    between atoms: _194  and  _195
REMARK   83  A    between atoms: _195  and  _196
REMARK   84  A    between atoms: _196  and  _197
REMARK   85  A    between atoms: _201  and  _203
REMARK   86  A    between atoms: _203  and  _204
REMARK   87  A    between atoms: _206  and  _208
REMARK   88  A    between atoms: _208  and  _209
REMARK   89  A    between atoms: _208  and  _211
REMARK   90  A    between atoms: _212  and  _213
REMARK   91  A    between atoms: _216  and  _218
REMARK   92  A    between atoms: _218  and  _219
REMARK   93  A    between atoms: _218  and  _221
REMARK   94  A    between atoms: _221  and  _222
REMARK   95  A    between atoms: _222  and  _223
REMARK   96  A    between atoms: _228  and  _230
REMARK   97  A    between atoms: _230  and  _231
REMARK   98  A    between atoms: _230  and  _233
REMARK   99  A    between atoms: _233  and  _234
REMARK  100  A    between atoms: _237  and  _239
REMARK  101  A    between atoms: _239  and  _240
REMARK  102  A    between atoms: _239  and  _242
REMARK  103  A    between atoms: _245  and  _247
REMARK  104  A    between atoms: _247  and  _248
REMARK  105  A    between atoms: _247  and  _250
REMARK  106  A    between atoms: _250  and  _251
REMARK  107  A    between atoms: _253  and  _255
REMARK  108  A    between atoms: _255  and  _256
REMARK  109  A    between atoms: _255  and  _258
REMARK  110  A    between atoms: _258  and  _259
REMARK  111  A    between atoms: _261  and  _263
REMARK  112  A    between atoms: _263  and  _264
REMARK  113  A    between atoms: _263  and  _266
REMARK  114  A    between atoms: _266  and  _267
REMARK  115  A    between atoms: _273  and  _275
REMARK  116  A    between atoms: _275  and  _276
REMARK  117  A    between atoms: _275  and  _278
REMARK  118  A    between atoms: _278  and  _279
REMARK  119  A    between atoms: _282  and  _284
REMARK  120  A    between atoms: _284  and  _285
REMARK  121  A    between atoms: _284  and  _287
REMARK  122  A    between atoms: _287  and  _288
REMARK  123  A    between atoms: _291  and  _293
REMARK  124  A    between atoms: _293  and  _294
REMARK  125  A    between atoms: _293  and  _296
REMARK  126  A    between atoms: _296  and  _297
REMARK  127  A    between atoms: _300  and  _302
REMARK  128  A    between atoms: _302  and  _303
REMARK  129  A    between atoms: _302  and  _305
REMARK  130  A    between atoms: _305  and  _306
REMARK  131  A    between atoms: _306  and  _307
REMARK  132  A    between atoms: _309  and  _311
REMARK  133  A    between atoms: _311  and  _312
REMARK  134  A    between atoms: _311  and  _314
REMARK  135  A    between atoms: _314  and  _315
REMARK  136  A    between atoms: _321  and  _323
REMARK  137  A    between atoms: _323  and  _324
REMARK  138  A    between atoms: _323  and  _326
REMARK  139  A    between atoms: _328  and  _330
REMARK  140  A    between atoms: _330  and  _331
REMARK  141  A    between atoms: _334  and  _336
REMARK  142  A    between atoms: _336  and  _337
REMARK  143  A    between atoms: _339  and  _341
REMARK  144  A    between atoms: _341  and  _342
REMARK  145  A    between atoms: _341  and  _344
REMARK  146  A    between atoms: _344  and  _345
REMARK  147  A    between atoms: _345  and  _346
REMARK  148  A    between atoms: _349  and  _351
REMARK  149  A    between atoms: _351  and  _352
REMARK  150  A    between atoms: _351  and  _354
REMARK  151  A    between atoms: _354  and  _355
REMARK  152  A    between atoms: _358  and  _360
REMARK  153  A    between atoms: _360  and  _361
REMARK  154  A    between atoms: _364  and  _366
REMARK  155  A    between atoms: _366  and  _367
REMARK  156  A    between atoms: _366  and  _369
REMARK  157  A    between atoms: _369  and  _370
REMARK  158  A    between atoms: _370  and  _493
REMARK  159  A    between atoms: _371  and  _373
REMARK  160  A    between atoms: _373  and  _374
REMARK  161  A    between atoms: _373  and  _376
REMARK  162  A    between atoms: _376  and  _377
REMARK  163  A    between atoms: _377  and  _378
REMARK  164  A    between atoms: _383  and  _385
REMARK  165  A    between atoms: _385  and  _386
REMARK  166  A    between atoms: _388  and  _390
REMARK  167  A    between atoms: _390  and  _391
REMARK  168  A    between atoms: _390  and  _393
REMARK  169  A    between atoms: _393  and  _394
REMARK  170  A    between atoms: _397  and  _399
REMARK  171  A    between atoms: _399  and  _400
REMARK  172  A    between atoms: _399  and  _402
REMARK  173  A    between atoms: _402  and  _403
REMARK  174  A    between atoms: _405  and  _407
REMARK  175  A    between atoms: _407  and  _408
REMARK  176  A    between atoms: _410  and  _412
REMARK  177  A    between atoms: _412  and  _413
REMARK  178  A    between atoms: _415  and  _417
REMARK  179  A    between atoms: _417  and  _418
REMARK  180  A    between atoms: _417  and  _420
REMARK  181  A    between atoms: _420  and  _421
REMARK  182  A    between atoms: _426  and  _428
REMARK  183  A    between atoms: _428  and  _429
REMARK  184  A    between atoms: _428  and  _431
REMARK  185  A    between atoms: _431  and  _432
REMARK  186  A    between atoms: _435  and  _437
REMARK  187  A    between atoms: _437  and  _438
REMARK  188  A    between atoms: _437  and  _440
REMARK  189  A    between atoms: _443  and  _445
REMARK  190  A    between atoms: _445  and  _446
REMARK  191  A    between atoms: _445  and  _448
REMARK  192  A    between atoms: _448  and  _449
REMARK  193  A    between atoms: _451  and  _453
REMARK  194  A    between atoms: _453  and  _454
REMARK  195  A    between atoms: _453  and  _456
REMARK  196  A    between atoms: _456  and  _457
REMARK  197  A    between atoms: _467  and  _469
REMARK  198  A    between atoms: _469  and  _470
REMARK  199  A    between atoms: _472  and  _474
REMARK  200  A    between atoms: _474  and  _475
REMARK  201  A    between atoms: _474  and  _477
REMARK  202  A    between atoms: _477  and  _478
REMARK  203  A    between atoms: _478  and  _479
REMARK  204  A    between atoms: _482  and  _484
REMARK  205  A    between atoms: _484  and  _485
REMARK  206  A    between atoms: _487  and  _489
REMARK  207  A    between atoms: _489  and  _490
REMARK  208  A    between atoms: _489  and  _492
REMARK  209  A    between atoms: _492  and  _493
REMARK  210  A    between atoms: _494  and  _496
REMARK  211  A    between atoms: _496  and  _497
REMARK  212  A    between atoms: _500  and  _502
REMARK  213  A    between atoms: _502  and  _503
REMARK  214  A    between atoms: _502  and  _505
REMARK  215  A    between atoms: _505  and  _506
REMARK  216  A    between atoms: _506  and  _507
REMARK  217  A    between atoms: _507  and  _508
REMARK  218  A    between atoms: _517  and  _519
REMARK  219  A    between atoms: _519  and  _520
REMARK  220  A    between atoms: _519  and  _522
REMARK  221  A    between atoms: _522  and  _523
REMARK  222  A    between atoms: _523  and  _524
REMARK  223  A    between atoms: _524  and  _525
REMARK  224  A    between atoms: _525  and  _526
REMARK  225  A    between atoms: _530  and  _532
REMARK  226  A    between atoms: _532  and  _533
REMARK  227  A    between atoms: _532  and  _535
REMARK  228  A    between atoms: _535  and  _536
REMARK  229  A    between atoms: _541  and  _542
REMARK  230  A    between atoms: _544  and  _546
REMARK  231  A    between atoms: _546  and  _547
REMARK  232  A    between atoms: _549  and  _551
REMARK  233  A    between atoms: _551  and  _552
REMARK  234  A    between atoms: _551  and  _554
REMARK  235  A    between atoms: _554  and  _555
REMARK  236  A    between atoms: _558  and  _560
REMARK  237  A    between atoms: _560  and  _561
REMARK  238  A    between atoms: _560  and  _563
REMARK  239  A    between atoms: _563  and  _564
REMARK  240  A    between atoms: _569  and  _570
REMARK  241  A    between atoms: _572  and  _574
REMARK  242  A    between atoms: _574  and  _575
REMARK  243  A    between atoms: _574  and  _577
REMARK  244  A    between atoms: _577  and  _578
REMARK                            x       y       z     vdW  Elec       q    Type
REMARK                         _______ _______ _______ _____ _____    ______ ____
ROOT
ATOM      1  O   HOH     1      11.004  62.281  -5.561  0.00  0.00    +0.000 OA
ENDROOT
TORSDOF 0
REMARK  Name = ../refined-set-2016/2xbv/2xbv_pocket.pdb
REMARK  244 active torsions:
REMARK  status: ('A' for Active; 'I' for Inactive)
REMARK    1  A    between atoms: _1  and  _5
REMARK    2  A    between atoms: _5  and  _6
REMARK    3  A    between atoms: _5  and  _8
REMARK    4  A    between atoms: _8  and  _9
REMARK    5  A    between atoms: _12  and  _14
REMARK    6  A    between atoms: _14  and  _15
REMARK    7  A    between atoms: _14  and  _17
REMARK    8  A    between atoms: _20  and  _22
REMARK    9  A    between atoms: _22  and  _23
REMARK   10  A    between atoms: _22  and  _25
REMARK   11  A    between atoms: _25  and  _26
REMARK   12  A    between atoms: _31  and  _33
REMARK   13  A    between atoms: _33  and  _34
REMARK   14  A    between atoms: _33  and  _36
REMARK   15  A    between atoms: _36  and  _37
REMARK   16  A    between atoms: _37  and  _38
REMARK   17  A    between atoms: _43  and  _45
REMARK   18  A    between atoms: _45  and  _46
REMARK   19  A    between atoms: _45  and  _48
REMARK   20  A    between atoms: _48  and  _49
REMARK   21  A    between atoms: _55  and  _57
REMARK   22  A    between atoms: _57  and  _58
REMARK   23  A    between atoms: _57  and  _60
REMARK   24  A    between atoms: _60  and  _61
REMARK   25  A    between atoms: _64  and  _66
REMARK   26  A    between atoms: _66  and  _67
REMARK   27  A    between atoms: _66  and  _69
REMARK   28  A    between atoms: _69  and  _70
REMARK   29  A    between atoms: _70  and  _71
REMARK   30  A    between atoms: _71  and  _72
REMARK   31  A    between atoms: _72  and  _73
REMARK   32  A    between atoms: _77  and  _79
REMARK   33  A    between atoms: _79  and  _80
REMARK   34  A    between atoms: _79  and  _82
REMARK   35  A    between atoms: _82  and  _83
REMARK   36  A    between atoms: _83  and  _84
REMARK   37  A    between atoms: _87  and  _89
REMARK   38  A    between atoms: _89  and  _90
REMARK   39  A    between atoms: _89  and  _92
REMARK   40  A    between atoms: _92  and  _93
REMARK   41  A    between atoms: _96  and  _98
REMARK   42  A    between atoms: _98  and  _99
REMARK   43  A    between atoms: _98  and  _101
REMARK   44  A    between atoms: _101  and  _102
REMARK   45  A    between atoms: _107  and  _108
REMARK   46  A    between atoms: _110  and  _112
REMARK   47  A    between atoms: _112  and  _113
REMARK   48  A    between atoms: _112  and  _115
REMARK   49  A    between atoms: _115  and  _116
REMARK   50  A    between atoms: _119  and  _121
REMARK   51  A    between atoms: _121  and  _122
REMARK   52  A    between atoms: _121  and  _124
REMARK   53  A    between atoms: _124  and  _125
REMARK   54  A    between atoms: _128  and  _130
REMARK   55  A    between atoms: _130  and  _131
REMARK   56  A    between atoms: _130  and  _133
REMARK   57  A    between atoms: _136  and  _138
REMARK   58  A    between atoms: _138  and  _139
REMARK   59  A    between atoms: _141  and  _143
REMARK   60  A    between atoms: _143  and  _144
REMARK   61  A    between atoms: _143  and  _146
REMARK   62  A    between atoms: _146  and  _147
REMARK   63  A    between atoms: _147  and  _148
REMARK   64  A    between atoms: _148  and  _149
REMARK   65  A    between atoms: _158  and  _160
REMARK   66  A    between atoms: _160  and  _161
REMARK   67  A    between atoms: _160  and  _163
REMARK   68  A    between atoms: _163  and  _164
REMARK   69  A    between atoms: _167  and  _169
REMARK   70  A    between atoms: _169  and  _170
REMARK   71  A    between atoms: _169  and  _172
REMARK   72  A    between atoms: _172  and  _173
REMARK   73  A    between atoms: _178  and  _180
REMARK   74  A    between atoms: _180  and  _181
REMARK   75  A    between atoms: _180  and  _183
REMARK   76  A    between atoms: _183  and  _184
REMARK   77  A    between atoms: _184  and  _185
REMARK   78  A    between atoms: _188  and  _190
REMARK   79  A    between atoms: _190  and  _191
REMARK   80  A    between atoms: _190  and  _193
REMARK   81  A    between atoms: _193  and  _194
REMARK   82  A    between atoms: _194  and  _195
REMARK   83  A    between atoms: _195  and  _196
REMARK   84  A    between atoms: _196  and  _197
REMARK   85  A    between atoms: _201  and  _203
REMARK   86  A    between atoms: _203  and  _204
REMARK   87  A    between atoms: _206  and  _208
REMARK   88  A    between atoms: _208  and  _209
REMARK   89  A    between atoms: _208  and  _211
REMARK   90  A    between atoms: _212  and  _213
REMARK   91  A    between atoms: _216  and  _218
REMARK   92  A    between atoms: _218  and  _219
REMARK   93  A    between atoms: _218  and  _221
REMARK   94  A    between atoms: _221  and  _222
REMARK   95  A    between atoms: _222  and  _223
REMARK   96  A    between atoms: _228  and  _230
REMARK   97  A    between atoms: _230  and  _231
REMARK   98  A    between atoms: _230  and  _233
REMARK   99  A    between atoms: _233  and  _234
REMARK  100  A    between atoms: _237  and  _239
REMARK  101  A    between atoms: _239  and  _240
REMARK  102  A    between atoms: _239  and  _242
REMARK  103  A    between atoms: _245  and  _247
REMARK  104  A    between atoms: _247  and  _248
REMARK  105  A    between atoms: _247  and  _250
REMARK  106  A    between atoms: _250  and  _251
REMARK  107  A    between atoms: _253  and  _255
REMARK  108  A    between atoms: _255  and  _256
REMARK  109  A    between atoms: _255  and  _258
REMARK  110  A    between atoms: _258  and  _259
REMARK  111  A    between atoms: _261  and  _263
REMARK  112  A    between atoms: _263  and  _264
REMARK  113  A    between atoms: _263  and  _266
REMARK  114  A    between atoms: _266  and  _267
REMARK  115  A    between atoms: _273  and  _275
REMARK  116  A    between atoms: _275  and  _276
REMARK  117  A    between atoms: _275  and  _278
REMARK  118  A    between atoms: _278  and  _279
REMARK  119  A    between atoms: _282  and  _284
REMARK  120  A    between atoms: _284  and  _285
REMARK  121  A    between atoms: _284  and  _287
REMARK  122  A    between atoms: _287  and  _288
REMARK  123  A    between atoms: _291  and  _293
REMARK  124  A    between atoms: _293  and  _294
REMARK  125  A    between atoms: _293  and  _296
REMARK  126  A    between atoms: _296  and  _297
REMARK  127  A    between atoms: _300  and  _302
REMARK  128  A    between atoms: _302  and  _303
REMARK  129  A    between atoms: _302  and  _305
REMARK  130  A    between atoms: _305  and  _306
REMARK  131  A    between atoms: _306  and  _307
REMARK  132  A    between atoms: _309  and  _311
REMARK  133  A    between atoms: _311  and  _312
REMARK  134  A    between atoms: _311  and  _314
REMARK  135  A    between atoms: _314  and  _315
REMARK  136  A    between atoms: _321  and  _323
REMARK  137  A    between atoms: _323  and  _324
REMARK  138  A    between atoms: _323  and  _326
REMARK  139  A    between atoms: _328  and  _330
REMARK  140  A    between atoms: _330  and  _331
REMARK  141  A    between atoms: _334  and  _336
REMARK  142  A    between atoms: _336  and  _337
REMARK  143  A    between atoms: _339  and  _341
REMARK  144  A    between atoms: _341  and  _342
REMARK  145  A    between atoms: _341  and  _344
REMARK  146  A    between atoms: _344  and  _345
REMARK  147  A    between atoms: _345  and  _346
REMARK  148  A    between atoms: _349  and  _351
REMARK  149  A    between atoms: _351  and  _352
REMARK  150  A    between atoms: _351  and  _354
REMARK  151  A    between atoms: _354  and  _355
REMARK  152  A    between atoms: _358  and  _360
REMARK  153  A    between atoms: _360  and  _361
REMARK  154  A    between atoms: _364  and  _366
REMARK  155  A    between atoms: _366  and  _367
REMARK  156  A    between atoms: _366  and  _369
REMARK  157  A    between atoms: _369  and  _370
REMARK  158  A    between atoms: _370  and  _493
REMARK  159  A    between atoms: _371  and  _373
REMARK  160  A    between atoms: _373  and  _374
REMARK  161  A    between atoms: _373  and  _376
REMARK  162  A    between atoms: _376  and  _377
REMARK  163  A    between atoms: _377  and  _378
REMARK  164  A    between atoms: _383  and  _385
REMARK  165  A    between atoms: _385  and  _386
REMARK  166  A    between atoms: _388  and  _390
REMARK  167  A    between atoms: _390  and  _391
REMARK  168  A    between atoms: _390  and  _393
REMARK  169  A    between atoms: _393  and  _394
REMARK  170  A    between atoms: _397  and  _399
REMARK  171  A    between atoms: _399  and  _400
REMARK  172  A    between atoms: _399  and  _402
REMARK  173  A    between atoms: _402  and  _403
REMARK  174  A    between atoms: _405  and  _407
REMARK  175  A    between atoms: _407  and  _408
REMARK  176  A    between atoms: _410  and  _412
REMARK  177  A    between atoms: _412  and  _413
REMARK  178  A    between atoms: _415  and  _417
REMARK  179  A    between atoms: _417  and  _418
REMARK  180  A    between atoms: _417  and  _420
REMARK  181  A    between atoms: _420  and  _421
REMARK  182  A    between atoms: _426  and  _428
REMARK  183  A    between atoms: _428  and  _429
REMARK  184  A    between atoms: _428  and  _431
REMARK  185  A    between atoms: _431  and  _432
REMARK  186  A    between atoms: _435  and  _437
REMARK  187  A    between atoms: _437  and  _438
REMARK  188  A    between atoms: _437  and  _440
REMARK  189  A    between atoms: _443  and  _445
REMARK  190  A    between atoms: _445  and  _446
REMARK  191  A    between atoms: _445  and  _448
REMARK  192  A    between atoms: _448  and  _449
REMARK  193  A    between atoms: _451  and  _453
REMARK  194  A    between atoms: _453  and  _454
REMARK  195  A    between atoms: _453  and  _456
REMARK  196  A    between atoms: _456  and  _457
REMARK  197  A    between atoms: _467  and  _469
REMARK  198  A    between atoms: _469  and  _470
REMARK  199  A    between atoms: _472  and  _474
REMARK  200  A    between atoms: _474  and  _475
REMARK  201  A    between atoms: _474  and  _477
REMARK  202  A    between atoms: _477  and  _478
REMARK  203  A    between atoms: _478  and  _479
REMARK  204  A    between atoms: _482  and  _484
REMARK  205  A    between atoms: _484  and  _485
REMARK  206  A    between atoms: _487  and  _489
REMARK  207  A    between atoms: _489  and  _490
REMARK  208  A    between atoms: _489  and  _492
REMARK  209  A    between atoms: _492  and  _493
REMARK  210  A    between atoms: _494  and  _496
REMARK  211  A    between atoms: _496  and  _497
REMARK  212  A    between atoms: _500  and  _502
REMARK  213  A    between atoms: _502  and  _503
REMARK  214  A    between atoms: _502  and  _505
REMARK  215  A    between atoms: _505  and  _506
REMARK  216  A    between atoms: _506  and  _507
REMARK  217  A    between atoms: _507  and  _508
REMARK  218  A    between atoms: _517  and  _519
REMARK  219  A    between atoms: _519  and  _520
REMARK  220  A    between atoms: _519  and  _522
REMARK  221  A    between atoms: _522  and  _523
REMARK  222  A    between atoms: _523  and  _524
REMARK  223  A    between atoms: _524  and  _525
REMARK  224  A    between atoms: _525  and  _526
REMARK  225  A    between atoms: _530  and  _532
REMARK  226  A    between atoms: _532  and  _533
REMARK  227  A    between atoms: _532  and  _535
REMARK  228  A    between atoms: _535  and  _536
REMARK  229  A    between atoms: _541  and  _542
REMARK  230  A    between atoms: _544  and  _546
REMARK  231  A    between atoms: _546  and  _547
REMARK  232  A    between atoms: _549  and  _551
REMARK  233  A    between atoms: _551  and  _552
REMARK  234  A    between atoms: _551  and  _554
REMARK  235  A    between atoms: _554  and  _555
REMARK  236  A    between atoms: _558  and  _560
REMARK  237  A    between atoms: _560  and  _561
REMARK  238  A    between atoms: _560  and  _563
REMARK  239  A    between atoms: _563  and  _564
REMARK  240  A    between atoms: _569  and  _570
REMARK  241  A    between atoms: _572  and  _574
REMARK  242  A    between atoms: _574  and  _575
REMARK  243  A    between atoms: _574  and  _577
REMARK  244  A    between atoms: _577  and  _578
REMARK                            x       y       z     vdW  Elec       q    Type
REMARK                         _______ _______ _______ _____ _____    ______ ____
ROOT
ATOM      1  O   HOH     1      10.639  64.305  -3.944  0.00  0.00    +0.000 OA
ENDROOT
TORSDOF 0
REMARK  Name = ../refined-set-2016/2xbv/2xbv_pocket.pdb
REMARK  244 active torsions:
REMARK  status: ('A' for Active; 'I' for Inactive)
REMARK    1  A    between atoms: _1  and  _5
REMARK    2  A    between atoms: _5  and  _6
REMARK    3  A    between atoms: _5  and  _8
REMARK    4  A    between atoms: _8  and  _9
REMARK    5  A    between atoms: _12  and  _14
REMARK    6  A    between atoms: _14  and  _15
REMARK    7  A    between atoms: _14  and  _17
REMARK    8  A    between atoms: _20  and  _22
REMARK    9  A    between atoms: _22  and  _23
REMARK   10  A    between atoms: _22  and  _25
REMARK   11  A    between atoms: _25  and  _26
REMARK   12  A    between atoms: _31  and  _33
REMARK   13  A    between atoms: _33  and  _34
REMARK   14  A    between atoms: _33  and  _36
REMARK   15  A    between atoms: _36  and  _37
REMARK   16  A    between atoms: _37  and  _38
REMARK   17  A    between atoms: _43  and  _45
REMARK   18  A    between atoms: _45  and  _46
REMARK   19  A    between atoms: _45  and  _48
REMARK   20  A    between atoms: _48  and  _49
REMARK   21  A    between atoms: _55  and  _57
REMARK   22  A    between atoms: _57  and  _58
REMARK   23  A    between atoms: _57  and  _60
REMARK   24  A    between atoms: _60  and  _61
REMARK   25  A    between atoms: _64  and  _66
REMARK   26  A    between atoms: _66  and  _67
REMARK   27  A    between atoms: _66  and  _69
REMARK   28  A    between atoms: _69  and  _70
REMARK   29  A    between atoms: _70  and  _71
REMARK   30  A    between atoms: _71  and  _72
REMARK   31  A    between atoms: _72  and  _73
REMARK   32  A    between atoms: _77  and  _79
REMARK   33  A    between atoms: _79  and  _80
REMARK   34  A    between atoms: _79  and  _82
REMARK   35  A    between atoms: _82  and  _83
REMARK   36  A    between atoms: _83  and  _84
REMARK   37  A    between atoms: _87  and  _89
REMARK   38  A    between atoms: _89  and  _90
REMARK   39  A    between atoms: _89  and  _92
REMARK   40  A    between atoms: _92  and  _93
REMARK   41  A    between atoms: _96  and  _98
REMARK   42  A    between atoms: _98  and  _99
REMARK   43  A    between atoms: _98  and  _101
REMARK   44  A    between atoms: _101  and  _102
REMARK   45  A    between atoms: _107  and  _108
REMARK   46  A    between atoms: _110  and  _112
REMARK   47  A    between atoms: _112  and  _113
REMARK   48  A    between atoms: _112  and  _115
REMARK   49  A    between atoms: _115  and  _116
REMARK   50  A    between atoms: _119  and  _121
REMARK   51  A    between atoms: _121  and  _122
REMARK   52  A    between atoms: _121  and  _124
REMARK   53  A    between atoms: _124  and  _125
REMARK   54  A    between atoms: _128  and  _130
REMARK   55  A    between atoms: _130  and  _131
REMARK   56  A    between atoms: _130  and  _133
REMARK   57  A    between atoms: _136  and  _138
REMARK   58  A    between atoms: _138  and  _139
REMARK   59  A    between atoms: _141  and  _143
REMARK   60  A    between atoms: _143  and  _144
REMARK   61  A    between atoms: _143  and  _146
REMARK   62  A    between atoms: _146  and  _147
REMARK   63  A    between atoms: _147  and  _148
REMARK   64  A    between atoms: _148  and  _149
REMARK   65  A    between atoms: _158  and  _160
REMARK   66  A    between atoms: _160  and  _161
REMARK   67  A    between atoms: _160  and  _163
REMARK   68  A    between atoms: _163  and  _164
REMARK   69  A    between atoms: _167  and  _169
REMARK   70  A    between atoms: _169  and  _170
REMARK   71  A    between atoms: _169  and  _172
REMARK   72  A    between atoms: _172  and  _173
REMARK   73  A    between atoms: _178  and  _180
REMARK   74  A    between atoms: _180  and  _181
REMARK   75  A    between atoms: _180  and  _183
REMARK   76  A    between atoms: _183  and  _184
REMARK   77  A    between atoms: _184  and  _185
REMARK   78  A    between atoms: _188  and  _190
REMARK   79  A    between atoms: _190  and  _191
REMARK   80  A    between atoms: _190  and  _193
REMARK   81  A    between atoms: _193  and  _194
REMARK   82  A    between atoms: _194  and  _195
REMARK   83  A    between atoms: _195  and  _196
REMARK   84  A    between atoms: _196  and  _197
REMARK   85  A    between atoms: _201  and  _203
REMARK   86  A    between atoms: _203  and  _204
REMARK   87  A    between atoms: _206  and  _208
REMARK   88  A    between atoms: _208  and  _209
REMARK   89  A    between atoms: _208  and  _211
REMARK   90  A    between atoms: _212  and  _213
REMARK   91  A    between atoms: _216  and  _218
REMARK   92  A    between atoms: _218  and  _219
REMARK   93  A    between atoms: _218  and  _221
REMARK   94  A    between atoms: _221  and  _222
REMARK   95  A    between atoms: _222  and  _223
REMARK   96  A    between atoms: _228  and  _230
REMARK   97  A    between atoms: _230  and  _231
REMARK   98  A    between atoms: _230  and  _233
REMARK   99  A    between atoms: _233  and  _234
REMARK  100  A    between atoms: _237  and  _239
REMARK  101  A    between atoms: _239  and  _240
REMARK  102  A    between atoms: _239  and  _242
REMARK  103  A    between atoms: _245  and  _247
REMARK  104  A    between atoms: _247  and  _248
REMARK  105  A    between atoms: _247  and  _250
REMARK  106  A    between atoms: _250  and  _251
REMARK  107  A    between atoms: _253  and  _255
REMARK  108  A    between atoms: _255  and  _256
REMARK  109  A    between atoms: _255  and  _258
REMARK  110  A    between atoms: _258  and  _259
REMARK  111  A    between atoms: _261  and  _263
REMARK  112  A    between atoms: _263  and  _264
REMARK  113  A    between atoms: _263  and  _266
REMARK  114  A    between atoms: _266  and  _267
REMARK  115  A    between atoms: _273  and  _275
REMARK  116  A    between atoms: _275  and  _276
REMARK  117  A    between atoms: _275  and  _278
REMARK  118  A    between atoms: _278  and  _279
REMARK  119  A    between atoms: _282  and  _284
REMARK  120  A    between atoms: _284  and  _285
REMARK  121  A    between atoms: _284  and  _287
REMARK  122  A    between atoms: _287  and  _288
REMARK  123  A    between atoms: _291  and  _293
REMARK  124  A    between atoms: _293  and  _294
REMARK  125  A    between atoms: _293  and  _296
REMARK  126  A    between atoms: _296  and  _297
REMARK  127  A    between atoms: _300  and  _302
REMARK  128  A    between atoms: _302  and  _303
REMARK  129  A    between atoms: _302  and  _305
REMARK  130  A    between atoms: _305  and  _306
REMARK  131  A    between atoms: _306  and  _307
REMARK  132  A    between atoms: _309  and  _311
REMARK  133  A    between atoms: _311  and  _312
REMARK  134  A    between atoms: _311  and  _314
REMARK  135  A    between atoms: _314  and  _315
REMARK  136  A    between atoms: _321  and  _323
REMARK  137  A    between atoms: _323  and  _324
REMARK  138  A    between atoms: _323  and  _326
REMARK  139  A    between atoms: _328  and  _330
REMARK  140  A    between atoms: _330  and  _331
REMARK  141  A    between atoms: _334  and  _336
REMARK  142  A    between atoms: _336  and  _337
REMARK  143  A    between atoms: _339  and  _341
REMARK  144  A    between atoms: _341  and  _342
REMARK  145  A    between atoms: _341  and  _344
REMARK  146  A    between atoms: _344  and  _345
REMARK  147  A    between atoms: _345  and  _346
REMARK  148  A    between atoms: _349  and  _351
REMARK  149  A    between atoms: _351  and  _352
REMARK  150  A    between atoms: _351  and  _354
REMARK  151  A    between atoms: _354  and  _355
REMARK  152  A    between atoms: _358  and  _360
REMARK  153  A    between atoms: _360  and  _361
REMARK  154  A    between atoms: _364  and  _366
REMARK  155  A    between atoms: _366  and  _367
REMARK  156  A    between atoms: _366  and  _369
REMARK  157  A    between atoms: _369  and  _370
REMARK  158  A    between atoms: _370  and  _493
REMARK  159  A    between atoms: _371  and  _373
REMARK  160  A    between atoms: _373  and  _374
REMARK  161  A    between atoms: _373  and  _376
REMARK  162  A    between atoms: _376  and  _377
REMARK  163  A    between atoms: _377  and  _378
REMARK  164  A    between atoms: _383  and  _385
REMARK  165  A    between atoms: _385  and  _386
REMARK  166  A    between atoms: _388  and  _390
REMARK  167  A    between atoms: _390  and  _391
REMARK  168  A    between atoms: _390  and  _393
REMARK  169  A    between atoms: _393  and  _394
REMARK  170  A    between atoms: _397  and  _399
REMARK  171  A    between atoms: _399  and  _400
REMARK  172  A    between atoms: _399  and  _402
REMARK  173  A    between atoms: _402  and  _403
REMARK  174  A    between atoms: _405  and  _407
REMARK  175  A    between atoms: _407  and  _408
REMARK  176  A    between atoms: _410  and  _412
REMARK  177  A    between atoms: _412  and  _413
REMARK  178  A    between atoms: _415  and  _417
REMARK  179  A    between atoms: _417  and  _418
REMARK  180  A    between atoms: _417  and  _420
REMARK  181  A    between atoms: _420  and  _421
REMARK  182  A    between atoms: _426  and  _428
REMARK  183  A    between atoms: _428  and  _429
REMARK  184  A    between atoms: _428  and  _431
REMARK  185  A    between atoms: _431  and  _432
REMARK  186  A    between atoms: _435  and  _437
REMARK  187  A    between atoms: _437  and  _438
REMARK  188  A    between atoms: _437  and  _440
REMARK  189  A    between atoms: _443  and  _445
REMARK  190  A    between atoms: _445  and  _446
REMARK  191  A    between atoms: _445  and  _448
REMARK  192  A    between atoms: _448  and  _449
REMARK  193  A    between atoms: _451  and  _453
REMARK  194  A    between atoms: _453  and  _454
REMARK  195  A    between atoms: _453  and  _456
REMARK  196  A    between atoms: _456  and  _457
REMARK  197  A    between atoms: _467  and  _469
REMARK  198  A    between atoms: _469  and  _470
REMARK  199  A    between atoms: _472  and  _474
REMARK  200  A    between atoms: _474  and  _475
REMARK  201  A    between atoms: _474  and  _477
REMARK  202  A    between atoms: _477  and  _478
REMARK  203  A    between atoms: _478  and  _479
REMARK  204  A    between atoms: _482  and  _484
REMARK  205  A    between atoms: _484  and  _485
REMARK  206  A    between atoms: _487  and  _489
REMARK  207  A    between atoms: _489  and  _490
REMARK  208  A    between atoms: _489  and  _492
REMARK  209  A    between atoms: _492  and  _493
REMARK  210  A    between atoms: _494  and  _496
REMARK  211  A    between atoms: _496  and  _497
REMARK  212  A    between atoms: _500  and  _502
REMARK  213  A    between atoms: _502  and  _503
REMARK  214  A    between atoms: _502  and  _505
REMARK  215  A    between atoms: _505  and  _506
REMARK  216  A    between atoms: _506  and  _507
REMARK  217  A    between atoms: _507  and  _508
REMARK  218  A    between atoms: _517  and  _519
REMARK  219  A    between atoms: _519  and  _520
REMARK  220  A    between atoms: _519  and  _522
REMARK  221  A    between atoms: _522  and  _523
REMARK  222  A    between atoms: _523  and  _524
REMARK  223  A    between atoms: _524  and  _525
REMARK  224  A    between atoms: _525  and  _526
REMARK  225  A    between atoms: _530  and  _532
REMARK  226  A    between atoms: _532  and  _533
REMARK  227  A    between atoms: _532  and  _535
REMARK  228  A    between atoms: _535  and  _536
REMARK  229  A    between atoms: _541  and  _542
REMARK  230  A    between atoms: _544  and  _546
REMARK  231  A    between atoms: _546  and  _547
REMARK  232  A    between atoms: _549  and  _551
REMARK  233  A    between atoms: _551  and  _552
REMARK  234  A    between atoms: _551  and  _554
REMARK  235  A    between atoms: _554  and  _555
REMARK  236  A    between atoms: _558  and  _560
REMARK  237  A    between atoms: _560  and  _561
REMARK  238  A    between atoms: _560  and  _563
REMARK  239  A    between atoms: _563  and  _564
REMARK  240  A    between atoms: _569  and  _570
REMARK  241  A    between atoms: _572  and  _574
REMARK  242  A    between atoms: _574  and  _575
REMARK  243  A    between atoms: _574  and  _577
REMARK  244  A    between atoms: _577  and  _578
REMARK                            x       y       z     vdW  Elec       q    Type
REMARK                         _______ _______ _______ _____ _____    ______ ____
ROOT
ATOM      1  O   HOH     1       7.424  63.518  -5.409  0.00  0.00    +0.000 OA
ENDROOT
TORSDOF 0
REMARK  Name = ../refined-set-2016/2xbv/2xbv_pocket.pdb
REMARK  244 active torsions:
REMARK  status: ('A' for Active; 'I' for Inactive)
REMARK    1  A    between atoms: _1  and  _5
REMARK    2  A    between atoms: _5  and  _6
REMARK    3  A    between atoms: _5  and  _8
REMARK    4  A    between atoms: _8  and  _9
REMARK    5  A    between atoms: _12  and  _14
REMARK    6  A    between atoms: _14  and  _15
REMARK    7  A    between atoms: _14  and  _17
REMARK    8  A    between atoms: _20  and  _22
REMARK    9  A    between atoms: _22  and  _23
REMARK   10  A    between atoms: _22  and  _25
REMARK   11  A    between atoms: _25  and  _26
REMARK   12  A    between atoms: _31  and  _33
REMARK   13  A    between atoms: _33  and  _34
REMARK   14  A    between atoms: _33  and  _36
REMARK   15  A    between atoms: _36  and  _37
REMARK   16  A    between atoms: _37  and  _38
REMARK   17  A    between atoms: _43  and  _45
REMARK   18  A    between atoms: _45  and  _46
REMARK   19  A    between atoms: _45  and  _48
REMARK   20  A    between atoms: _48  and  _49
REMARK   21  A    between atoms: _55  and  _57
REMARK   22  A    between atoms: _57  and  _58
REMARK   23  A    between atoms: _57  and  _60
REMARK   24  A    between atoms: _60  and  _61
REMARK   25  A    between atoms: _64  and  _66
REMARK   26  A    between atoms: _66  and  _67
REMARK   27  A    between atoms: _66  and  _69
REMARK   28  A    between atoms: _69  and  _70
REMARK   29  A    between atoms: _70  and  _71
REMARK   30  A    between atoms: _71  and  _72
REMARK   31  A    between atoms: _72  and  _73
REMARK   32  A    between atoms: _77  and  _79
REMARK   33  A    between atoms: _79  and  _80
REMARK   34  A    between atoms: _79  and  _82
REMARK   35  A    between atoms: _82  and  _83
REMARK   36  A    between atoms: _83  and  _84
REMARK   37  A    between atoms: _87  and  _89
REMARK   38  A    between atoms: _89  and  _90
REMARK   39  A    between atoms: _89  and  _92
REMARK   40  A    between atoms: _92  and  _93
REMARK   41  A    between atoms: _96  and  _98
REMARK   42  A    between atoms: _98  and  _99
REMARK   43  A    between atoms: _98  and  _101
REMARK   44  A    between atoms: _101  and  _102
REMARK   45  A    between atoms: _107  and  _108
REMARK   46  A    between atoms: _110  and  _112
REMARK   47  A    between atoms: _112  and  _113
REMARK   48  A    between atoms: _112  and  _115
REMARK   49  A    between atoms: _115  and  _116
REMARK   50  A    between atoms: _119  and  _121
REMARK   51  A    between atoms: _121  and  _122
REMARK   52  A    between atoms: _121  and  _124
REMARK   53  A    between atoms: _124  and  _125
REMARK   54  A    between atoms: _128  and  _130
REMARK   55  A    between atoms: _130  and  _131
REMARK   56  A    between atoms: _130  and  _133
REMARK   57  A    between atoms: _136  and  _138
REMARK   58  A    between atoms: _138  and  _139
REMARK   59  A    between atoms: _141  and  _143
REMARK   60  A    between atoms: _143  and  _144
REMARK   61  A    between atoms: _143  and  _146
REMARK   62  A    between atoms: _146  and  _147
REMARK   63  A    between atoms: _147  and  _148
REMARK   64  A    between atoms: _148  and  _149
REMARK   65  A    between atoms: _158  and  _160
REMARK   66  A    between atoms: _160  and  _161
REMARK   67  A    between atoms: _160  and  _163
REMARK   68  A    between atoms: _163  and  _164
REMARK   69  A    between atoms: _167  and  _169
REMARK   70  A    between atoms: _169  and  _170
REMARK   71  A    between atoms: _169  and  _172
REMARK   72  A    between atoms: _172  and  _173
REMARK   73  A    between atoms: _178  and  _180
REMARK   74  A    between atoms: _180  and  _181
REMARK   75  A    between atoms: _180  and  _183
REMARK   76  A    between atoms: _183  and  _184
REMARK   77  A    between atoms: _184  and  _185
REMARK   78  A    between atoms: _188  and  _190
REMARK   79  A    between atoms: _190  and  _191
REMARK   80  A    between atoms: _190  and  _193
REMARK   81  A    between atoms: _193  and  _194
REMARK   82  A    between atoms: _194  and  _195
REMARK   83  A    between atoms: _195  and  _196
REMARK   84  A    between atoms: _196  and  _197
REMARK   85  A    between atoms: _201  and  _203
REMARK   86  A    between atoms: _203  and  _204
REMARK   87  A    between atoms: _206  and  _208
REMARK   88  A    between atoms: _208  and  _209
REMARK   89  A    between atoms: _208  and  _211
REMARK   90  A    between atoms: _212  and  _213
REMARK   91  A    between atoms: _216  and  _218
REMARK   92  A    between atoms: _218  and  _219
REMARK   93  A    between atoms: _218  and  _221
REMARK   94  A    between atoms: _221  and  _222
REMARK   95  A    between atoms: _222  and  _223
REMARK   96  A    between atoms: _228  and  _230
REMARK   97  A    between atoms: _230  and  _231
REMARK   98  A    between atoms: _230  and  _233
REMARK   99  A    between atoms: _233  and  _234
REMARK  100  A    between atoms: _237  and  _239
REMARK  101  A    between atoms: _239  and  _240
REMARK  102  A    between atoms: _239  and  _242
REMARK  103  A    between atoms: _245  and  _247
REMARK  104  A    between atoms: _247  and  _248
REMARK  105  A    between atoms: _247  and  _250
REMARK  106  A    between atoms: _250  and  _251
REMARK  107  A    between atoms: _253  and  _255
REMARK  108  A    between atoms: _255  and  _256
REMARK  109  A    between atoms: _255  and  _258
REMARK  110  A    between atoms: _258  and  _259
REMARK  111  A    between atoms: _261  and  _263
REMARK  112  A    between atoms: _263  and  _264
REMARK  113  A    between atoms: _263  and  _266
REMARK  114  A    between atoms: _266  and  _267
REMARK  115  A    between atoms: _273  and  _275
REMARK  116  A    between atoms: _275  and  _276
REMARK  117  A    between atoms: _275  and  _278
REMARK  118  A    between atoms: _278  and  _279
REMARK  119  A    between atoms: _282  and  _284
REMARK  120  A    between atoms: _284  and  _285
REMARK  121  A    between atoms: _284  and  _287
REMARK  122  A    between atoms: _287  and  _288
REMARK  123  A    between atoms: _291  and  _293
REMARK  124  A    between atoms: _293  and  _294
REMARK  125  A    between atoms: _293  and  _296
REMARK  126  A    between atoms: _296  and  _297
REMARK  127  A    between atoms: _300  and  _302
REMARK  128  A    between atoms: _302  and  _303
REMARK  129  A    between atoms: _302  and  _305
REMARK  130  A    between atoms: _305  and  _306
REMARK  131  A    between atoms: _306  and  _307
REMARK  132  A    between atoms: _309  and  _311
REMARK  133  A    between atoms: _311  and  _312
REMARK  134  A    between atoms: _311  and  _314
REMARK  135  A    between atoms: _314  and  _315
REMARK  136  A    between atoms: _321  and  _323
REMARK  137  A    between atoms: _323  and  _324
REMARK  138  A    between atoms: _323  and  _326
REMARK  139  A    between atoms: _328  and  _330
REMARK  140  A    between atoms: _330  and  _331
REMARK  141  A    between atoms: _334  and  _336
REMARK  142  A    between atoms: _336  and  _337
REMARK  143  A    between atoms: _339  and  _341
REMARK  144  A    between atoms: _341  and  _342
REMARK  145  A    between atoms: _341  and  _344
REMARK  146  A    between atoms: _344  and  _345
REMARK  147  A    between atoms: _345  and  _346
REMARK  148  A    between atoms: _349  and  _351
REMARK  149  A    between atoms: _351  and  _352
REMARK  150  A    between atoms: _351  and  _354
REMARK  151  A    between atoms: _354  and  _355
REMARK  152  A    between atoms: _358  and  _360
REMARK  153  A    between atoms: _360  and  _361
REMARK  154  A    between atoms: _364  and  _366
REMARK  155  A    between atoms: _366  and  _367
REMARK  156  A    between atoms: _366  and  _369
REMARK  157  A    between atoms: _369  and  _370
REMARK  158  A    between atoms: _370  and  _493
REMARK  159  A    between atoms: _371  and  _373
REMARK  160  A    between atoms: _373  and  _374
REMARK  161  A    between atoms: _373  and  _376
REMARK  162  A    between atoms: _376  and  _377
REMARK  163  A    between atoms: _377  and  _378
REMARK  164  A    between atoms: _383  and  _385
REMARK  165  A    between atoms: _385  and  _386
REMARK  166  A    between atoms: _388  and  _390
REMARK  167  A    between atoms: _390  and  _391
REMARK  168  A    between atoms: _390  and  _393
REMARK  169  A    between atoms: _393  and  _394
REMARK  170  A    between atoms: _397  and  _399
REMARK  171  A    between atoms: _399  and  _400
REMARK  172  A    between atoms: _399  and  _402
REMARK  173  A    between atoms: _402  and  _403
REMARK  174  A    between atoms: _405  and  _407
REMARK  175  A    between atoms: _407  and  _408
REMARK  176  A    between atoms: _410  and  _412
REMARK  177  A    between atoms: _412  and  _413
REMARK  178  A    between atoms: _415  and  _417
REMARK  179  A    between atoms: _417  and  _418
REMARK  180  A    between atoms: _417  and  _420
REMARK  181  A    between atoms: _420  and  _421
REMARK  182  A    between atoms: _426  and  _428
REMARK  183  A    between atoms: _428  and  _429
REMARK  184  A    between atoms: _428  and  _431
REMARK  185  A    between atoms: _431  and  _432
REMARK  186  A    between atoms: _435  and  _437
REMARK  187  A    between atoms: _437  and  _438
REMARK  188  A    between atoms: _437  and  _440
REMARK  189  A    between atoms: _443  and  _445
REMARK  190  A    between atoms: _445  and  _446
REMARK  191  A    between atoms: _445  and  _448
REMARK  192  A    between atoms: _448  and  _449
REMARK  193  A    between atoms: _451  and  _453
REMARK  194  A    between atoms: _453  and  _454
REMARK  195  A    between atoms: _453  and  _456
REMARK  196  A    between atoms: _456  and  _457
REMARK  197  A    between atoms: _467  and  _469
REMARK  198  A    between atoms: _469  and  _470
REMARK  199  A    between atoms: _472  and  _474
REMARK  200  A    between atoms: _474  and  _475
REMARK  201  A    between atoms: _474  and  _477
REMARK  202  A    between atoms: _477  and  _478
REMARK  203  A    between atoms: _478  and  _479
REMARK  204  A    between atoms: _482  and  _484
REMARK  205  A    between atoms: _484  and  _485
REMARK  206  A    between atoms: _487  and  _489
REMARK  207  A    between atoms: _489  and  _490
REMARK  208  A    between atoms: _489  and  _492
REMARK  209  A    between atoms: _492  and  _493
REMARK  210  A    between atoms: _494  and  _496
REMARK  211  A    between atoms: _496  and  _497
REMARK  212  A    between atoms: _500  and  _502
REMARK  213  A    between atoms: _502  and  _503
REMARK  214  A    between atoms: _502  and  _505
REMARK  215  A    between atoms: _505  and  _506
REMARK  216  A    between atoms: _506  and  _507
REMARK  217  A    between atoms: _507  and  _508
REMARK  218  A    between atoms: _517  and  _519
REMARK  219  A    between atoms: _519  and  _520
REMARK  220  A    between atoms: _519  and  _522
REMARK  221  A    between atoms: _522  and  _523
REMARK  222  A    between atoms: _523  and  _524
REMARK  223  A    between atoms: _524  and  _525
REMARK  224  A    between atoms: _525  and  _526
REMARK  225  A    between atoms: _530  and  _532
REMARK  226  A    between atoms: _532  and  _533
REMARK  227  A    between atoms: _532  and  _535
REMARK  228  A    between atoms: _535  and  _536
REMARK  229  A    between atoms: _541  and  _542
REMARK  230  A    between atoms: _544  and  _546
REMARK  231  A    between atoms: _546  and  _547
REMARK  232  A    between atoms: _549  and  _551
REMARK  233  A    between atoms: _551  and  _552
REMARK  234  A    between atoms: _551  and  _554
REMARK  235  A    between atoms: _554  and  _555
REMARK  236  A    between atoms: _558  and  _560
REMARK  237  A    between atoms: _560  and  _561
REMARK  238  A    between atoms: _560  and  _563
REMARK  239  A    between atoms: _563  and  _564
REMARK  240  A    between atoms: _569  and  _570
REMARK  241  A    between atoms: _572  and  _574
REMARK  242  A    between atoms: _574  and  _575
REMARK  243  A    between atoms: _574  and  _577
REMARK  244  A    between atoms: _577  and  _578
REMARK                            x       y       z     vdW  Elec       q    Type
REMARK                         _______ _______ _______ _____ _____    ______ ____
ROOT
ATOM      1  O   HOH     1       4.314  58.778  -0.868  0.00  0.00    +0.000 OA
ENDROOT
TORSDOF 0
REMARK  Name = ../refined-set-2016/2xbv/2xbv_pocket.pdb
REMARK  244 active torsions:
REMARK  status: ('A' for Active; 'I' for Inactive)
REMARK    1  A    between atoms: _1  and  _5
REMARK    2  A    between atoms: _5  and  _6
REMARK    3  A    between atoms: _5  and  _8
REMARK    4  A    between atoms: _8  and  _9
REMARK    5  A    between atoms: _12  and  _14
REMARK    6  A    between atoms: _14  and  _15
REMARK    7  A    between atoms: _14  and  _17
REMARK    8  A    between atoms: _20  and  _22
REMARK    9  A    between atoms: _22  and  _23
REMARK   10  A    between atoms: _22  and  _25
REMARK   11  A    between atoms: _25  and  _26
REMARK   12  A    between atoms: _31  and  _33
REMARK   13  A    between atoms: _33  and  _34
REMARK   14  A    between atoms: _33  and  _36
REMARK   15  A    between atoms: _36  and  _37
REMARK   16  A    between atoms: _37  and  _38
REMARK   17  A    between atoms: _43  and  _45
REMARK   18  A    between atoms: _45  and  _46
REMARK   19  A    between atoms: _45  and  _48
REMARK   20  A    between atoms: _48  and  _49
REMARK   21  A    between atoms: _55  and  _57
REMARK   22  A    between atoms: _57  and  _58
REMARK   23  A    between atoms: _57  and  _60
REMARK   24  A    between atoms: _60  and  _61
REMARK   25  A    between atoms: _64  and  _66
REMARK   26  A    between atoms: _66  and  _67
REMARK   27  A    between atoms: _66  and  _69
REMARK   28  A    between atoms: _69  and  _70
REMARK   29  A    between atoms: _70  and  _71
REMARK   30  A    between atoms: _71  and  _72
REMARK   31  A    between atoms: _72  and  _73
REMARK   32  A    between atoms: _77  and  _79
REMARK   33  A    between atoms: _79  and  _80
REMARK   34  A    between atoms: _79  and  _82
REMARK   35  A    between atoms: _82  and  _83
REMARK   36  A    between atoms: _83  and  _84
REMARK   37  A    between atoms: _87  and  _89
REMARK   38  A    between atoms: _89  and  _90
REMARK   39  A    between atoms: _89  and  _92
REMARK   40  A    between atoms: _92  and  _93
REMARK   41  A    between atoms: _96  and  _98
REMARK   42  A    between atoms: _98  and  _99
REMARK   43  A    between atoms: _98  and  _101
REMARK   44  A    between atoms: _101  and  _102
REMARK   45  A    between atoms: _107  and  _108
REMARK   46  A    between atoms: _110  and  _112
REMARK   47  A    between atoms: _112  and  _113
REMARK   48  A    between atoms: _112  and  _115
REMARK   49  A    between atoms: _115  and  _116
REMARK   50  A    between atoms: _119  and  _121
REMARK   51  A    between atoms: _121  and  _122
REMARK   52  A    between atoms: _121  and  _124
REMARK   53  A    between atoms: _124  and  _125
REMARK   54  A    between atoms: _128  and  _130
REMARK   55  A    between atoms: _130  and  _131
REMARK   56  A    between atoms: _130  and  _133
REMARK   57  A    between atoms: _136  and  _138
REMARK   58  A    between atoms: _138  and  _139
REMARK   59  A    between atoms: _141  and  _143
REMARK   60  A    between atoms: _143  and  _144
REMARK   61  A    between atoms: _143  and  _146
REMARK   62  A    between atoms: _146  and  _147
REMARK   63  A    between atoms: _147  and  _148
REMARK   64  A    between atoms: _148  and  _149
REMARK   65  A    between atoms: _158  and  _160
REMARK   66  A    between atoms: _160  and  _161
REMARK   67  A    between atoms: _160  and  _163
REMARK   68  A    between atoms: _163  and  _164
REMARK   69  A    between atoms: _167  and  _169
REMARK   70  A    between atoms: _169  and  _170
REMARK   71  A    between atoms: _169  and  _172
REMARK   72  A    between atoms: _172  and  _173
REMARK   73  A    between atoms: _178  and  _180
REMARK   74  A    between atoms: _180  and  _181
REMARK   75  A    between atoms: _180  and  _183
REMARK   76  A    between atoms: _183  and  _184
REMARK   77  A    between atoms: _184  and  _185
REMARK   78  A    between atoms: _188  and  _190
REMARK   79  A    between atoms: _190  and  _191
REMARK   80  A    between atoms: _190  and  _193
REMARK   81  A    between atoms: _193  and  _194
REMARK   82  A    between atoms: _194  and  _195
REMARK   83  A    between atoms: _195  and  _196
REMARK   84  A    between atoms: _196  and  _197
REMARK   85  A    between atoms: _201  and  _203
REMARK   86  A    between atoms: _203  and  _204
REMARK   87  A    between atoms: _206  and  _208
REMARK   88  A    between atoms: _208  and  _209
REMARK   89  A    between atoms: _208  and  _211
REMARK   90  A    between atoms: _212  and  _213
REMARK   91  A    between atoms: _216  and  _218
REMARK   92  A    between atoms: _218  and  _219
REMARK   93  A    between atoms: _218  and  _221
REMARK   94  A    between atoms: _221  and  _222
REMARK   95  A    between atoms: _222  and  _223
REMARK   96  A    between atoms: _228  and  _230
REMARK   97  A    between atoms: _230  and  _231
REMARK   98  A    between atoms: _230  and  _233
REMARK   99  A    between atoms: _233  and  _234
REMARK  100  A    between atoms: _237  and  _239
REMARK  101  A    between atoms: _239  and  _240
REMARK  102  A    between atoms: _239  and  _242
REMARK  103  A    between atoms: _245  and  _247
REMARK  104  A    between atoms: _247  and  _248
REMARK  105  A    between atoms: _247  and  _250
REMARK  106  A    between atoms: _250  and  _251
REMARK  107  A    between atoms: _253  and  _255
REMARK  108  A    between atoms: _255  and  _256
REMARK  109  A    between atoms: _255  and  _258
REMARK  110  A    between atoms: _258  and  _259
REMARK  111  A    between atoms: _261  and  _263
REMARK  112  A    between atoms: _263  and  _264
REMARK  113  A    between atoms: _263  and  _266
REMARK  114  A    between atoms: _266  and  _267
REMARK  115  A    between atoms: _273  and  _275
REMARK  116  A    between atoms: _275  and  _276
REMARK  117  A    between atoms: _275  and  _278
REMARK  118  A    between atoms: _278  and  _279
REMARK  119  A    between atoms: _282  and  _284
REMARK  120  A    between atoms: _284  and  _285
REMARK  121  A    between atoms: _284  and  _287
REMARK  122  A    between atoms: _287  and  _288
REMARK  123  A    between atoms: _291  and  _293
REMARK  124  A    between atoms: _293  and  _294
REMARK  125  A    between atoms: _293  and  _296
REMARK  126  A    between atoms: _296  and  _297
REMARK  127  A    between atoms: _300  and  _302
REMARK  128  A    between atoms: _302  and  _303
REMARK  129  A    between atoms: _302  and  _305
REMARK  130  A    between atoms: _305  and  _306
REMARK  131  A    between atoms: _306  and  _307
REMARK  132  A    between atoms: _309  and  _311
REMARK  133  A    between atoms: _311  and  _312
REMARK  134  A    between atoms: _311  and  _314
REMARK  135  A    between atoms: _314  and  _315
REMARK  136  A    between atoms: _321  and  _323
REMARK  137  A    between atoms: _323  and  _324
REMARK  138  A    between atoms: _323  and  _326
REMARK  139  A    between atoms: _328  and  _330
REMARK  140  A    between atoms: _330  and  _331
REMARK  141  A    between atoms: _334  and  _336
REMARK  142  A    between atoms: _336  and  _337
REMARK  143  A    between atoms: _339  and  _341
REMARK  144  A    between atoms: _341  and  _342
REMARK  145  A    between atoms: _341  and  _344
REMARK  146  A    between atoms: _344  and  _345
REMARK  147  A    between atoms: _345  and  _346
REMARK  148  A    between atoms: _349  and  _351
REMARK  149  A    between atoms: _351  and  _352
REMARK  150  A    between atoms: _351  and  _354
REMARK  151  A    between atoms: _354  and  _355
REMARK  152  A    between atoms: _358  and  _360
REMARK  153  A    between atoms: _360  and  _361
REMARK  154  A    between atoms: _364  and  _366
REMARK  155  A    between atoms: _366  and  _367
REMARK  156  A    between atoms: _366  and  _369
REMARK  157  A    between atoms: _369  and  _370
REMARK  158  A    between atoms: _370  and  _493
REMARK  159  A    between atoms: _371  and  _373
REMARK  160  A    between atoms: _373  and  _374
REMARK  161  A    between atoms: _373  and  _376
REMARK  162  A    between atoms: _376  and  _377
REMARK  163  A    between atoms: _377  and  _378
REMARK  164  A    between atoms: _383  and  _385
REMARK  165  A    between atoms: _385  and  _386
REMARK  166  A    between atoms: _388  and  _390
REMARK  167  A    between atoms: _390  and  _391
REMARK  168  A    between atoms: _390  and  _393
REMARK  169  A    between atoms: _393  and  _394
REMARK  170  A    between atoms: _397  and  _399
REMARK  171  A    between atoms: _399  and  _400
REMARK  172  A    between atoms: _399  and  _402
REMARK  173  A    between atoms: _402  and  _403
REMARK  174  A    between atoms: _405  and  _407
REMARK  175  A    between atoms: _407  and  _408
REMARK  176  A    between atoms: _410  and  _412
REMARK  177  A    between atoms: _412  and  _413
REMARK  178  A    between atoms: _415  and  _417
REMARK  179  A    between atoms: _417  and  _418
REMARK  180  A    between atoms: _417  and  _420
REMARK  181  A    between atoms: _420  and  _421
REMARK  182  A    between atoms: _426  and  _428
REMARK  183  A    between atoms: _428  and  _429
REMARK  184  A    between atoms: _428  and  _431
REMARK  185  A    between atoms: _431  and  _432
REMARK  186  A    between atoms: _435  and  _437
REMARK  187  A    between atoms: _437  and  _438
REMARK  188  A    between atoms: _437  and  _440
REMARK  189  A    between atoms: _443  and  _445
REMARK  190  A    between atoms: _445  and  _446
REMARK  191  A    between atoms: _445  and  _448
REMARK  192  A    between atoms: _448  and  _449
REMARK  193  A    between atoms: _451  and  _453
REMARK  194  A    between atoms: _453  and  _454
REMARK  195  A    between atoms: _453  and  _456
REMARK  196  A    between atoms: _456  and  _457
REMARK  197  A    between atoms: _467  and  _469
REMARK  198  A    between atoms: _469  and  _470
REMARK  199  A    between atoms: _472  and  _474
REMARK  200  A    between atoms: _474  and  _475
REMARK  201  A    between atoms: _474  and  _477
REMARK  202  A    between atoms: _477  and  _478
REMARK  203  A    between atoms: _478  and  _479
REMARK  204  A    between atoms: _482  and  _484
REMARK  205  A    between atoms: _484  and  _485
REMARK  206  A    between atoms: _487  and  _489
REMARK  207  A    between atoms: _489  and  _490
REMARK  208  A    between atoms: _489  and  _492
REMARK  209  A    between atoms: _492  and  _493
REMARK  210  A    between atoms: _494  and  _496
REMARK  211  A    between atoms: _496  and  _497
REMARK  212  A    between atoms: _500  and  _502
REMARK  213  A    between atoms: _502  and  _503
REMARK  214  A    between atoms: _502  and  _505
REMARK  215  A    between atoms: _505  and  _506
REMARK  216  A    between atoms: _506  and  _507
REMARK  217  A    between atoms: _507  and  _508
REMARK  218  A    between atoms: _517  and  _519
REMARK  219  A    between atoms: _519  and  _520
REMARK  220  A    between atoms: _519  and  _522
REMARK  221  A    between atoms: _522  and  _523
REMARK  222  A    between atoms: _523  and  _524
REMARK  223  A    between atoms: _524  and  _525
REMARK  224  A    between atoms: _525  and  _526
REMARK  225  A    between atoms: _530  and  _532
REMARK  226  A    between atoms: _532  and  _533
REMARK  227  A    between atoms: _532  and  _535
REMARK  228  A    between atoms: _535  and  _536
REMARK  229  A    between atoms: _541  and  _542
REMARK  230  A    between atoms: _544  and  _546
REMARK  231  A    between atoms: _546  and  _547
REMARK  232  A    between atoms: _549  and  _551
REMARK  233  A    between atoms: _551  and  _552
REMARK  234  A    between atoms: _551  and  _554
REMARK  235  A    between atoms: _554  and  _555
REMARK  236  A    between atoms: _558  and  _560
REMARK  237  A    between atoms: _560  and  _561
REMARK  238  A    between atoms: _560  and  _563
REMARK  239  A    between atoms: _563  and  _564
REMARK  240  A    between atoms: _569  and  _570
REMARK  241  A    between atoms: _572  and  _574
REMARK  242  A    between atoms: _574  and  _575
REMARK  243  A    between atoms: _574  and  _577
REMARK  244  A    between atoms: _577  and  _578
REMARK                            x       y       z     vdW  Elec       q    Type
REMARK                         _______ _______ _______ _____ _____    ______ ____
ROOT
ATOM      1  O   HOH     1       1.771  56.230   0.810  0.00  0.00    +0.000 OA
ENDROOT
TORSDOF 0
REMARK  Name = ../refined-set-2016/2xbv/2xbv_pocket.pdb
REMARK  244 active torsions:
REMARK  status: ('A' for Active; 'I' for Inactive)
REMARK    1  A    between atoms: _1  and  _5
REMARK    2  A    between atoms: _5  and  _6
REMARK    3  A    between atoms: _5  and  _8
REMARK    4  A    between atoms: _8  and  _9
REMARK    5  A    between atoms: _12  and  _14
REMARK    6  A    between atoms: _14  and  _15
REMARK    7  A    between atoms: _14  and  _17
REMARK    8  A    between atoms: _20  and  _22
REMARK    9  A    between atoms: _22  and  _23
REMARK   10  A    between atoms: _22  and  _25
REMARK   11  A    between atoms: _25  and  _26
REMARK   12  A    between atoms: _31  and  _33
REMARK   13  A    between atoms: _33  and  _34
REMARK   14  A    between atoms: _33  and  _36
REMARK   15  A    between atoms: _36  and  _37
REMARK   16  A    between atoms: _37  and  _38
REMARK   17  A    between atoms: _43  and  _45
REMARK   18  A    between atoms: _45  and  _46
REMARK   19  A    between atoms: _45  and  _48
REMARK   20  A    between atoms: _48  and  _49
REMARK   21  A    between atoms: _55  and  _57
REMARK   22  A    between atoms: _57  and  _58
REMARK   23  A    between atoms: _57  and  _60
REMARK   24  A    between atoms: _60  and  _61
REMARK   25  A    between atoms: _64  and  _66
REMARK   26  A    between atoms: _66  and  _67
REMARK   27  A    between atoms: _66  and  _69
REMARK   28  A    between atoms: _69  and  _70
REMARK   29  A    between atoms: _70  and  _71
REMARK   30  A    between atoms: _71  and  _72
REMARK   31  A    between atoms: _72  and  _73
REMARK   32  A    between atoms: _77  and  _79
REMARK   33  A    between atoms: _79  and  _80
REMARK   34  A    between atoms: _79  and  _82
REMARK   35  A    between atoms: _82  and  _83
REMARK   36  A    between atoms: _83  and  _84
REMARK   37  A    between atoms: _87  and  _89
REMARK   38  A    between atoms: _89  and  _90
REMARK   39  A    between atoms: _89  and  _92
REMARK   40  A    between atoms: _92  and  _93
REMARK   41  A    between atoms: _96  and  _98
REMARK   42  A    between atoms: _98  and  _99
REMARK   43  A    between atoms: _98  and  _101
REMARK   44  A    between atoms: _101  and  _102
REMARK   45  A    between atoms: _107  and  _108
REMARK   46  A    between atoms: _110  and  _112
REMARK   47  A    between atoms: _112  and  _113
REMARK   48  A    between atoms: _112  and  _115
REMARK   49  A    between atoms: _115  and  _116
REMARK   50  A    between atoms: _119  and  _121
REMARK   51  A    between atoms: _121  and  _122
REMARK   52  A    between atoms: _121  and  _124
REMARK   53  A    between atoms: _124  and  _125
REMARK   54  A    between atoms: _128  and  _130
REMARK   55  A    between atoms: _130  and  _131
REMARK   56  A    between atoms: _130  and  _133
REMARK   57  A    between atoms: _136  and  _138
REMARK   58  A    between atoms: _138  and  _139
REMARK   59  A    between atoms: _141  and  _143
REMARK   60  A    between atoms: _143  and  _144
REMARK   61  A    between atoms: _143  and  _146
REMARK   62  A    between atoms: _146  and  _147
REMARK   63  A    between atoms: _147  and  _148
REMARK   64  A    between atoms: _148  and  _149
REMARK   65  A    between atoms: _158  and  _160
REMARK   66  A    between atoms: _160  and  _161
REMARK   67  A    between atoms: _160  and  _163
REMARK   68  A    between atoms: _163  and  _164
REMARK   69  A    between atoms: _167  and  _169
REMARK   70  A    between atoms: _169  and  _170
REMARK   71  A    between atoms: _169  and  _172
REMARK   72  A    between atoms: _172  and  _173
REMARK   73  A    between atoms: _178  and  _180
REMARK   74  A    between atoms: _180  and  _181
REMARK   75  A    between atoms: _180  and  _183
REMARK   76  A    between atoms: _183  and  _184
REMARK   77  A    between atoms: _184  and  _185
REMARK   78  A    between atoms: _188  and  _190
REMARK   79  A    between atoms: _190  and  _191
REMARK   80  A    between atoms: _190  and  _193
REMARK   81  A    between atoms: _193  and  _194
REMARK   82  A    between atoms: _194  and  _195
REMARK   83  A    between atoms: _195  and  _196
REMARK   84  A    between atoms: _196  and  _197
REMARK   85  A    between atoms: _201  and  _203
REMARK   86  A    between atoms: _203  and  _204
REMARK   87  A    between atoms: _206  and  _208
REMARK   88  A    between atoms: _208  and  _209
REMARK   89  A    between atoms: _208  and  _211
REMARK   90  A    between atoms: _212  and  _213
REMARK   91  A    between atoms: _216  and  _218
REMARK   92  A    between atoms: _218  and  _219
REMARK   93  A    between atoms: _218  and  _221
REMARK   94  A    between atoms: _221  and  _222
REMARK   95  A    between atoms: _222  and  _223
REMARK   96  A    between atoms: _228  and  _230
REMARK   97  A    between atoms: _230  and  _231
REMARK   98  A    between atoms: _230  and  _233
REMARK   99  A    between atoms: _233  and  _234
REMARK  100  A    between atoms: _237  and  _239
REMARK  101  A    between atoms: _239  and  _240
REMARK  102  A    between atoms: _239  and  _242
REMARK  103  A    between atoms: _245  and  _247
REMARK  104  A    between atoms: _247  and  _248
REMARK  105  A    between atoms: _247  and  _250
REMARK  106  A    between atoms: _250  and  _251
REMARK  107  A    between atoms: _253  and  _255
REMARK  108  A    between atoms: _255  and  _256
REMARK  109  A    between atoms: _255  and  _258
REMARK  110  A    between atoms: _258  and  _259
REMARK  111  A    between atoms: _261  and  _263
REMARK  112  A    between atoms: _263  and  _264
REMARK  113  A    between atoms: _263  and  _266
REMARK  114  A    between atoms: _266  and  _267
REMARK  115  A    between atoms: _273  and  _275
REMARK  116  A    between atoms: _275  and  _276
REMARK  117  A    between atoms: _275  and  _278
REMARK  118  A    between atoms: _278  and  _279
REMARK  119  A    between atoms: _282  and  _284
REMARK  120  A    between atoms: _284  and  _285
REMARK  121  A    between atoms: _284  and  _287
REMARK  122  A    between atoms: _287  and  _288
REMARK  123  A    between atoms: _291  and  _293
REMARK  124  A    between atoms: _293  and  _294
REMARK  125  A    between atoms: _293  and  _296
REMARK  126  A    between atoms: _296  and  _297
REMARK  127  A    between atoms: _300  and  _302
REMARK  128  A    between atoms: _302  and  _303
REMARK  129  A    between atoms: _302  and  _305
REMARK  130  A    between atoms: _305  and  _306
REMARK  131  A    between atoms: _306  and  _307
REMARK  132  A    between atoms: _309  and  _311
REMARK  133  A    between atoms: _311  and  _312
REMARK  134  A    between atoms: _311  and  _314
REMARK  135  A    between atoms: _314  and  _315
REMARK  136  A    between atoms: _321  and  _323
REMARK  137  A    between atoms: _323  and  _324
REMARK  138  A    between atoms: _323  and  _326
REMARK  139  A    between atoms: _328  and  _330
REMARK  140  A    between atoms: _330  and  _331
REMARK  141  A    between atoms: _334  and  _336
REMARK  142  A    between atoms: _336  and  _337
REMARK  143  A    between atoms: _339  and  _341
REMARK  144  A    between atoms: _341  and  _342
REMARK  145  A    between atoms: _341  and  _344
REMARK  146  A    between atoms: _344  and  _345
REMARK  147  A    between atoms: _345  and  _346
REMARK  148  A    between atoms: _349  and  _351
REMARK  149  A    between atoms: _351  and  _352
REMARK  150  A    between atoms: _351  and  _354
REMARK  151  A    between atoms: _354  and  _355
REMARK  152  A    between atoms: _358  and  _360
REMARK  153  A    between atoms: _360  and  _361
REMARK  154  A    between atoms: _364  and  _366
REMARK  155  A    between atoms: _366  and  _367
REMARK  156  A    between atoms: _366  and  _369
REMARK  157  A    between atoms: _369  and  _370
REMARK  158  A    between atoms: _370  and  _493
REMARK  159  A    between atoms: _371  and  _373
REMARK  160  A    between atoms: _373  and  _374
REMARK  161  A    between atoms: _373  and  _376
REMARK  162  A    between atoms: _376  and  _377
REMARK  163  A    between atoms: _377  and  _378
REMARK  164  A    between atoms: _383  and  _385
REMARK  165  A    between atoms: _385  and  _386
REMARK  166  A    between atoms: _388  and  _390
REMARK  167  A    between atoms: _390  and  _391
REMARK  168  A    between atoms: _390  and  _393
REMARK  169  A    between atoms: _393  and  _394
REMARK  170  A    between atoms: _397  and  _399
REMARK  171  A    between atoms: _399  and  _400
REMARK  172  A    between atoms: _399  and  _402
REMARK  173  A    between atoms: _402  and  _403
REMARK  174  A    between atoms: _405  and  _407
REMARK  175  A    between atoms: _407  and  _408
REMARK  176  A    between atoms: _410  and  _412
REMARK  177  A    between atoms: _412  and  _413
REMARK  178  A    between atoms: _415  and  _417
REMARK  179  A    between atoms: _417  and  _418
REMARK  180  A    between atoms: _417  and  _420
REMARK  181  A    between atoms: _420  and  _421
REMARK  182  A    between atoms: _426  and  _428
REMARK  183  A    between atoms: _428  and  _429
REMARK  184  A    between atoms: _428  and  _431
REMARK  185  A    between atoms: _431  and  _432
REMARK  186  A    between atoms: _435  and  _437
REMARK  187  A    between atoms: _437  and  _438
REMARK  188  A    between atoms: _437  and  _440
REMARK  189  A    between atoms: _443  and  _445
REMARK  190  A    between atoms: _445  and  _446
REMARK  191  A    between atoms: _445  and  _448
REMARK  192  A    between atoms: _448  and  _449
REMARK  193  A    between atoms: _451  and  _453
REMARK  194  A    between atoms: _453  and  _454
REMARK  195  A    between atoms: _453  and  _456
REMARK  196  A    between atoms: _456  and  _457
REMARK  197  A    between atoms: _467  and  _469
REMARK  198  A    between atoms: _469  and  _470
REMARK  199  A    between atoms: _472  and  _474
REMARK  200  A    between atoms: _474  and  _475
REMARK  201  A    between atoms: _474  and  _477
REMARK  202  A    between atoms: _477  and  _478
REMARK  203  A    between atoms: _478  and  _479
REMARK  204  A    between atoms: _482  and  _484
REMARK  205  A    between atoms: _484  and  _485
REMARK  206  A    between atoms: _487  and  _489
REMARK  207  A    between atoms: _489  and  _490
REMARK  208  A    between atoms: _489  and  _492
REMARK  209  A    between atoms: _492  and  _493
REMARK  210  A    between atoms: _494  and  _496
REMARK  211  A    between atoms: _496  and  _497
REMARK  212  A    between atoms: _500  and  _502
REMARK  213  A    between atoms: _502  and  _503
REMARK  214  A    between atoms: _502  and  _505
REMARK  215  A    between atoms: _505  and  _506
REMARK  216  A    between atoms: _506  and  _507
REMARK  217  A    between atoms: _507  and  _508
REMARK  218  A    between atoms: _517  and  _519
REMARK  219  A    between atoms: _519  and  _520
REMARK  220  A    between atoms: _519  and  _522
REMARK  221  A    between atoms: _522  and  _523
REMARK  222  A    between atoms: _523  and  _524
REMARK  223  A    between atoms: _524  and  _525
REMARK  224  A    between atoms: _525  and  _526
REMARK  225  A    between atoms: _530  and  _532
REMARK  226  A    between atoms: _532  and  _533
REMARK  227  A    between atoms: _532  and  _535
REMARK  228  A    between atoms: _535  and  _536
REMARK  229  A    between atoms: _541  and  _542
REMARK  230  A    between atoms: _544  and  _546
REMARK  231  A    between atoms: _546  and  _547
REMARK  232  A    between atoms: _549  and  _551
REMARK  233  A    between atoms: _551  and  _552
REMARK  234  A    between atoms: _551  and  _554
REMARK  235  A    between atoms: _554  and  _555
REMARK  236  A    between atoms: _558  and  _560
REMARK  237  A    between atoms: _560  and  _561
REMARK  238  A    between atoms: _560  and  _563
REMARK  239  A    between atoms: _563  and  _564
REMARK  240  A    between atoms: _569  and  _570
REMARK  241  A    between atoms: _572  and  _574
REMARK  242  A    between atoms: _574  and  _575
REMARK  243  A    between atoms: _574  and  _577
REMARK  244  A    between atoms: _577  and  _578
REMARK                            x       y       z     vdW  Elec       q    Type
REMARK                         _______ _______ _______ _____ _____    ______ ____
ROOT
ATOM      1  O   HOH     1       6.827  52.999   4.810  0.00  0.00    +0.000 OA
ENDROOT
TORSDOF 0
REMARK  Name = ../refined-set-2016/2xbv/2xbv_pocket.pdb
REMARK  244 active torsions:
REMARK  status: ('A' for Active; 'I' for Inactive)
REMARK    1  A    between atoms: _1  and  _5
REMARK    2  A    between atoms: _5  and  _6
REMARK    3  A    between atoms: _5  and  _8
REMARK    4  A    between atoms: _8  and  _9
REMARK    5  A    between atoms: _12  and  _14
REMARK    6  A    between atoms: _14  and  _15
REMARK    7  A    between atoms: _14  and  _17
REMARK    8  A    between atoms: _20  and  _22
REMARK    9  A    between atoms: _22  and  _23
REMARK   10  A    between atoms: _22  and  _25
REMARK   11  A    between atoms: _25  and  _26
REMARK   12  A    between atoms: _31  and  _33
REMARK   13  A    between atoms: _33  and  _34
REMARK   14  A    between atoms: _33  and  _36
REMARK   15  A    between atoms: _36  and  _37
REMARK   16  A    between atoms: _37  and  _38
REMARK   17  A    between atoms: _43  and  _45
REMARK   18  A    between atoms: _45  and  _46
REMARK   19  A    between atoms: _45  and  _48
REMARK   20  A    between atoms: _48  and  _49
REMARK   21  A    between atoms: _55  and  _57
REMARK   22  A    between atoms: _57  and  _58
REMARK   23  A    between atoms: _57  and  _60
REMARK   24  A    between atoms: _60  and  _61
REMARK   25  A    between atoms: _64  and  _66
REMARK   26  A    between atoms: _66  and  _67
REMARK   27  A    between atoms: _66  and  _69
REMARK   28  A    between atoms: _69  and  _70
REMARK   29  A    between atoms: _70  and  _71
REMARK   30  A    between atoms: _71  and  _72
REMARK   31  A    between atoms: _72  and  _73
REMARK   32  A    between atoms: _77  and  _79
REMARK   33  A    between atoms: _79  and  _80
REMARK   34  A    between atoms: _79  and  _82
REMARK   35  A    between atoms: _82  and  _83
REMARK   36  A    between atoms: _83  and  _84
REMARK   37  A    between atoms: _87  and  _89
REMARK   38  A    between atoms: _89  and  _90
REMARK   39  A    between atoms: _89  and  _92
REMARK   40  A    between atoms: _92  and  _93
REMARK   41  A    between atoms: _96  and  _98
REMARK   42  A    between atoms: _98  and  _99
REMARK   43  A    between atoms: _98  and  _101
REMARK   44  A    between atoms: _101  and  _102
REMARK   45  A    between atoms: _107  and  _108
REMARK   46  A    between atoms: _110  and  _112
REMARK   47  A    between atoms: _112  and  _113
REMARK   48  A    between atoms: _112  and  _115
REMARK   49  A    between atoms: _115  and  _116
REMARK   50  A    between atoms: _119  and  _121
REMARK   51  A    between atoms: _121  and  _122
REMARK   52  A    between atoms: _121  and  _124
REMARK   53  A    between atoms: _124  and  _125
REMARK   54  A    between atoms: _128  and  _130
REMARK   55  A    between atoms: _130  and  _131
REMARK   56  A    between atoms: _130  and  _133
REMARK   57  A    between atoms: _136  and  _138
REMARK   58  A    between atoms: _138  and  _139
REMARK   59  A    between atoms: _141  and  _143
REMARK   60  A    between atoms: _143  and  _144
REMARK   61  A    between atoms: _143  and  _146
REMARK   62  A    between atoms: _146  and  _147
REMARK   63  A    between atoms: _147  and  _148
REMARK   64  A    between atoms: _148  and  _149
REMARK   65  A    between atoms: _158  and  _160
REMARK   66  A    between atoms: _160  and  _161
REMARK   67  A    between atoms: _160  and  _163
REMARK   68  A    between atoms: _163  and  _164
REMARK   69  A    between atoms: _167  and  _169
REMARK   70  A    between atoms: _169  and  _170
REMARK   71  A    between atoms: _169  and  _172
REMARK   72  A    between atoms: _172  and  _173
REMARK   73  A    between atoms: _178  and  _180
REMARK   74  A    between atoms: _180  and  _181
REMARK   75  A    between atoms: _180  and  _183
REMARK   76  A    between atoms: _183  and  _184
REMARK   77  A    between atoms: _184  and  _185
REMARK   78  A    between atoms: _188  and  _190
REMARK   79  A    between atoms: _190  and  _191
REMARK   80  A    between atoms: _190  and  _193
REMARK   81  A    between atoms: _193  and  _194
REMARK   82  A    between atoms: _194  and  _195
REMARK   83  A    between atoms: _195  and  _196
REMARK   84  A    between atoms: _196  and  _197
REMARK   85  A    between atoms: _201  and  _203
REMARK   86  A    between atoms: _203  and  _204
REMARK   87  A    between atoms: _206  and  _208
REMARK   88  A    between atoms: _208  and  _209
REMARK   89  A    between atoms: _208  and  _211
REMARK   90  A    between atoms: _212  and  _213
REMARK   91  A    between atoms: _216  and  _218
REMARK   92  A    between atoms: _218  and  _219
REMARK   93  A    between atoms: _218  and  _221
REMARK   94  A    between atoms: _221  and  _222
REMARK   95  A    between atoms: _222  and  _223
REMARK   96  A    between atoms: _228  and  _230
REMARK   97  A    between atoms: _230  and  _231
REMARK   98  A    between atoms: _230  and  _233
REMARK   99  A    between atoms: _233  and  _234
REMARK  100  A    between atoms: _237  and  _239
REMARK  101  A    between atoms: _239  and  _240
REMARK  102  A    between atoms: _239  and  _242
REMARK  103  A    between atoms: _245  and  _247
REMARK  104  A    between atoms: _247  and  _248
REMARK  105  A    between atoms: _247  and  _250
REMARK  106  A    between atoms: _250  and  _251
REMARK  107  A    between atoms: _253  and  _255
REMARK  108  A    between atoms: _255  and  _256
REMARK  109  A    between atoms: _255  and  _258
REMARK  110  A    between atoms: _258  and  _259
REMARK  111  A    between atoms: _261  and  _263
REMARK  112  A    between atoms: _263  and  _264
REMARK  113  A    between atoms: _263  and  _266
REMARK  114  A    between atoms: _266  and  _267
REMARK  115  A    between atoms: _273  and  _275
REMARK  116  A    between atoms: _275  and  _276
REMARK  117  A    between atoms: _275  and  _278
REMARK  118  A    between atoms: _278  and  _279
REMARK  119  A    between atoms: _282  and  _284
REMARK  120  A    between atoms: _284  and  _285
REMARK  121  A    between atoms: _284  and  _287
REMARK  122  A    between atoms: _287  and  _288
REMARK  123  A    between atoms: _291  and  _293
REMARK  124  A    between atoms: _293  and  _294
REMARK  125  A    between atoms: _293  and  _296
REMARK  126  A    between atoms: _296  and  _297
REMARK  127  A    between atoms: _300  and  _302
REMARK  128  A    between atoms: _302  and  _303
REMARK  129  A    between atoms: _302  and  _305
REMARK  130  A    between atoms: _305  and  _306
REMARK  131  A    between atoms: _306  and  _307
REMARK  132  A    between atoms: _309  and  _311
REMARK  133  A    between atoms: _311  and  _312
REMARK  134  A    between atoms: _311  and  _314
REMARK  135  A    between atoms: _314  and  _315
REMARK  136  A    between atoms: _321  and  _323
REMARK  137  A    between atoms: _323  and  _324
REMARK  138  A    between atoms: _323  and  _326
REMARK  139  A    between atoms: _328  and  _330
REMARK  140  A    between atoms: _330  and  _331
REMARK  141  A    between atoms: _334  and  _336
REMARK  142  A    between atoms: _336  and  _337
REMARK  143  A    between atoms: _339  and  _341
REMARK  144  A    between atoms: _341  and  _342
REMARK  145  A    between atoms: _341  and  _344
REMARK  146  A    between atoms: _344  and  _345
REMARK  147  A    between atoms: _345  and  _346
REMARK  148  A    between atoms: _349  and  _351
REMARK  149  A    between atoms: _351  and  _352
REMARK  150  A    between atoms: _351  and  _354
REMARK  151  A    between atoms: _354  and  _355
REMARK  152  A    between atoms: _358  and  _360
REMARK  153  A    between atoms: _360  and  _361
REMARK  154  A    between atoms: _364  and  _366
REMARK  155  A    between atoms: _366  and  _367
REMARK  156  A    between atoms: _366  and  _369
REMARK  157  A    between atoms: _369  and  _370
REMARK  158  A    between atoms: _370  and  _493
REMARK  159  A    between atoms: _371  and  _373
REMARK  160  A    between atoms: _373  and  _374
REMARK  161  A    between atoms: _373  and  _376
REMARK  162  A    between atoms: _376  and  _377
REMARK  163  A    between atoms: _377  and  _378
REMARK  164  A    between atoms: _383  and  _385
REMARK  165  A    between atoms: _385  and  _386
REMARK  166  A    between atoms: _388  and  _390
REMARK  167  A    between atoms: _390  and  _391
REMARK  168  A    between atoms: _390  and  _393
REMARK  169  A    between atoms: _393  and  _394
REMARK  170  A    between atoms: _397  and  _399
REMARK  171  A    between atoms: _399  and  _400
REMARK  172  A    between atoms: _399  and  _402
REMARK  173  A    between atoms: _402  and  _403
REMARK  174  A    between atoms: _405  and  _407
REMARK  175  A    between atoms: _407  and  _408
REMARK  176  A    between atoms: _410  and  _412
REMARK  177  A    between atoms: _412  and  _413
REMARK  178  A    between atoms: _415  and  _417
REMARK  179  A    between atoms: _417  and  _418
REMARK  180  A    between atoms: _417  and  _420
REMARK  181  A    between atoms: _420  and  _421
REMARK  182  A    between atoms: _426  and  _428
REMARK  183  A    between atoms: _428  and  _429
REMARK  184  A    between atoms: _428  and  _431
REMARK  185  A    between atoms: _431  and  _432
REMARK  186  A    between atoms: _435  and  _437
REMARK  187  A    between atoms: _437  and  _438
REMARK  188  A    between atoms: _437  and  _440
REMARK  189  A    between atoms: _443  and  _445
REMARK  190  A    between atoms: _445  and  _446
REMARK  191  A    between atoms: _445  and  _448
REMARK  192  A    between atoms: _448  and  _449
REMARK  193  A    between atoms: _451  and  _453
REMARK  194  A    between atoms: _453  and  _454
REMARK  195  A    between atoms: _453  and  _456
REMARK  196  A    between atoms: _456  and  _457
REMARK  197  A    between atoms: _467  and  _469
REMARK  198  A    between atoms: _469  and  _470
REMARK  199  A    between atoms: _472  and  _474
REMARK  200  A    between atoms: _474  and  _475
REMARK  201  A    between atoms: _474  and  _477
REMARK  202  A    between atoms: _477  and  _478
REMARK  203  A    between atoms: _478  and  _479
REMARK  204  A    between atoms: _482  and  _484
REMARK  205  A    between atoms: _484  and  _485
REMARK  206  A    between atoms: _487  and  _489
REMARK  207  A    between atoms: _489  and  _490
REMARK  208  A    between atoms: _489  and  _492
REMARK  209  A    between atoms: _492  and  _493
REMARK  210  A    between atoms: _494  and  _496
REMARK  211  A    between atoms: _496  and  _497
REMARK  212  A    between atoms: _500  and  _502
REMARK  213  A    between atoms: _502  and  _503
REMARK  214  A    between atoms: _502  and  _505
REMARK  215  A    between atoms: _505  and  _506
REMARK  216  A    between atoms: _506  and  _507
REMARK  217  A    between atoms: _507  and  _508
REMARK  218  A    between atoms: _517  and  _519
REMARK  219  A    between atoms: _519  and  _520
REMARK  220  A    between atoms: _519  and  _522
REMARK  221  A    between atoms: _522  and  _523
REMARK  222  A    between atoms: _523  and  _524
REMARK  223  A    between atoms: _524  and  _525
REMARK  224  A    between atoms: _525  and  _526
REMARK  225  A    between atoms: _530  and  _532
REMARK  226  A    between atoms: _532  and  _533
REMARK  227  A    between atoms: _532  and  _535
REMARK  228  A    between atoms: _535  and  _536
REMARK  229  A    between atoms: _541  and  _542
REMARK  230  A    between atoms: _544  and  _546
REMARK  231  A    between atoms: _546  and  _547
REMARK  232  A    between atoms: _549  and  _551
REMARK  233  A    between atoms: _551  and  _552
REMARK  234  A    between atoms: _551  and  _554
REMARK  235  A    between atoms: _554  and  _555
REMARK  236  A    between atoms: _558  and  _560
REMARK  237  A    between atoms: _560  and  _561
REMARK  238  A    between atoms: _560  and  _563
REMARK  239  A    between atoms: _563  and  _564
REMARK  240  A    between atoms: _569  and  _570
REMARK  241  A    between atoms: _572  and  _574
REMARK  242  A    between atoms: _574  and  _575
REMARK  243  A    between atoms: _574  and  _577
REMARK  244  A    between atoms: _577  and  _578
REMARK                            x       y       z     vdW  Elec       q    Type
REMARK                         _______ _______ _______ _____ _____    ______ ____
ROOT
ATOM      1  O   HOH     1      10.486  63.240  -1.517  0.00  0.00    +0.000 OA
ENDROOT
TORSDOF 0
REMARK  Name = ../refined-set-2016/2xbv/2xbv_pocket.pdb
REMARK  244 active torsions:
REMARK  status: ('A' for Active; 'I' for Inactive)
REMARK    1  A    between atoms: _1  and  _5
REMARK    2  A    between atoms: _5  and  _6
REMARK    3  A    between atoms: _5  and  _8
REMARK    4  A    between atoms: _8  and  _9
REMARK    5  A    between atoms: _12  and  _14
REMARK    6  A    between atoms: _14  and  _15
REMARK    7  A    between atoms: _14  and  _17
REMARK    8  A    between atoms: _20  and  _22
REMARK    9  A    between atoms: _22  and  _23
REMARK   10  A    between atoms: _22  and  _25
REMARK   11  A    between atoms: _25  and  _26
REMARK   12  A    between atoms: _31  and  _33
REMARK   13  A    between atoms: _33  and  _34
REMARK   14  A    between atoms: _33  and  _36
REMARK   15  A    between atoms: _36  and  _37
REMARK   16  A    between atoms: _37  and  _38
REMARK   17  A    between atoms: _43  and  _45
REMARK   18  A    between atoms: _45  and  _46
REMARK   19  A    between atoms: _45  and  _48
REMARK   20  A    between atoms: _48  and  _49
REMARK   21  A    between atoms: _55  and  _57
REMARK   22  A    between atoms: _57  and  _58
REMARK   23  A    between atoms: _57  and  _60
REMARK   24  A    between atoms: _60  and  _61
REMARK   25  A    between atoms: _64  and  _66
REMARK   26  A    between atoms: _66  and  _67
REMARK   27  A    between atoms: _66  and  _69
REMARK   28  A    between atoms: _69  and  _70
REMARK   29  A    between atoms: _70  and  _71
REMARK   30  A    between atoms: _71  and  _72
REMARK   31  A    between atoms: _72  and  _73
REMARK   32  A    between atoms: _77  and  _79
REMARK   33  A    between atoms: _79  and  _80
REMARK   34  A    between atoms: _79  and  _82
REMARK   35  A    between atoms: _82  and  _83
REMARK   36  A    between atoms: _83  and  _84
REMARK   37  A    between atoms: _87  and  _89
REMARK   38  A    between atoms: _89  and  _90
REMARK   39  A    between atoms: _89  and  _92
REMARK   40  A    between atoms: _92  and  _93
REMARK   41  A    between atoms: _96  and  _98
REMARK   42  A    between atoms: _98  and  _99
REMARK   43  A    between atoms: _98  and  _101
REMARK   44  A    between atoms: _101  and  _102
REMARK   45  A    between atoms: _107  and  _108
REMARK   46  A    between atoms: _110  and  _112
REMARK   47  A    between atoms: _112  and  _113
REMARK   48  A    between atoms: _112  and  _115
REMARK   49  A    between atoms: _115  and  _116
REMARK   50  A    between atoms: _119  and  _121
REMARK   51  A    between atoms: _121  and  _122
REMARK   52  A    between atoms: _121  and  _124
REMARK   53  A    between atoms: _124  and  _125
REMARK   54  A    between atoms: _128  and  _130
REMARK   55  A    between atoms: _130  and  _131
REMARK   56  A    between atoms: _130  and  _133
REMARK   57  A    between atoms: _136  and  _138
REMARK   58  A    between atoms: _138  and  _139
REMARK   59  A    between atoms: _141  and  _143
REMARK   60  A    between atoms: _143  and  _144
REMARK   61  A    between atoms: _143  and  _146
REMARK   62  A    between atoms: _146  and  _147
REMARK   63  A    between atoms: _147  and  _148
REMARK   64  A    between atoms: _148  and  _149
REMARK   65  A    between atoms: _158  and  _160
REMARK   66  A    between atoms: _160  and  _161
REMARK   67  A    between atoms: _160  and  _163
REMARK   68  A    between atoms: _163  and  _164
REMARK   69  A    between atoms: _167  and  _169
REMARK   70  A    between atoms: _169  and  _170
REMARK   71  A    between atoms: _169  and  _172
REMARK   72  A    between atoms: _172  and  _173
REMARK   73  A    between atoms: _178  and  _180
REMARK   74  A    between atoms: _180  and  _181
REMARK   75  A    between atoms: _180  and  _183
REMARK   76  A    between atoms: _183  and  _184
REMARK   77  A    between atoms: _184  and  _185
REMARK   78  A    between atoms: _188  and  _190
REMARK   79  A    between atoms: _190  and  _191
REMARK   80  A    between atoms: _190  and  _193
REMARK   81  A    between atoms: _193  and  _194
REMARK   82  A    between atoms: _194  and  _195
REMARK   83  A    between atoms: _195  and  _196
REMARK   84  A    between atoms: _196  and  _197
REMARK   85  A    between atoms: _201  and  _203
REMARK   86  A    between atoms: _203  and  _204
REMARK   87  A    between atoms: _206  and  _208
REMARK   88  A    between atoms: _208  and  _209
REMARK   89  A    between atoms: _208  and  _211
REMARK   90  A    between atoms: _212  and  _213
REMARK   91  A    between atoms: _216  and  _218
REMARK   92  A    between atoms: _218  and  _219
REMARK   93  A    between atoms: _218  and  _221
REMARK   94  A    between atoms: _221  and  _222
REMARK   95  A    between atoms: _222  and  _223
REMARK   96  A    between atoms: _228  and  _230
REMARK   97  A    between atoms: _230  and  _231
REMARK   98  A    between atoms: _230  and  _233
REMARK   99  A    between atoms: _233  and  _234
REMARK  100  A    between atoms: _237  and  _239
REMARK  101  A    between atoms: _239  and  _240
REMARK  102  A    between atoms: _239  and  _242
REMARK  103  A    between atoms: _245  and  _247
REMARK  104  A    between atoms: _247  and  _248
REMARK  105  A    between atoms: _247  and  _250
REMARK  106  A    between atoms: _250  and  _251
REMARK  107  A    between atoms: _253  and  _255
REMARK  108  A    between atoms: _255  and  _256
REMARK  109  A    between atoms: _255  and  _258
REMARK  110  A    between atoms: _258  and  _259
REMARK  111  A    between atoms: _261  and  _263
REMARK  112  A    between atoms: _263  and  _264
REMARK  113  A    between atoms: _263  and  _266
REMARK  114  A    between atoms: _266  and  _267
REMARK  115  A    between atoms: _273  and  _275
REMARK  116  A    between atoms: _275  and  _276
REMARK  117  A    between atoms: _275  and  _278
REMARK  118  A    between atoms: _278  and  _279
REMARK  119  A    between atoms: _282  and  _284
REMARK  120  A    between atoms: _284  and  _285
REMARK  121  A    between atoms: _284  and  _287
REMARK  122  A    between atoms: _287  and  _288
REMARK  123  A    between atoms: _291  and  _293
REMARK  124  A    between atoms: _293  and  _294
REMARK  125  A    between atoms: _293  and  _296
REMARK  126  A    between atoms: _296  and  _297
REMARK  127  A    between atoms: _300  and  _302
REMARK  128  A    between atoms: _302  and  _303
REMARK  129  A    between atoms: _302  and  _305
REMARK  130  A    between atoms: _305  and  _306
REMARK  131  A    between atoms: _306  and  _307
REMARK  132  A    between atoms: _309  and  _311
REMARK  133  A    between atoms: _311  and  _312
REMARK  134  A    between atoms: _311  and  _314
REMARK  135  A    between atoms: _314  and  _315
REMARK  136  A    between atoms: _321  and  _323
REMARK  137  A    between atoms: _323  and  _324
REMARK  138  A    between atoms: _323  and  _326
REMARK  139  A    between atoms: _328  and  _330
REMARK  140  A    between atoms: _330  and  _331
REMARK  141  A    between atoms: _334  and  _336
REMARK  142  A    between atoms: _336  and  _337
REMARK  143  A    between atoms: _339  and  _341
REMARK  144  A    between atoms: _341  and  _342
REMARK  145  A    between atoms: _341  and  _344
REMARK  146  A    between atoms: _344  and  _345
REMARK  147  A    between atoms: _345  and  _346
REMARK  148  A    between atoms: _349  and  _351
REMARK  149  A    between atoms: _351  and  _352
REMARK  150  A    between atoms: _351  and  _354
REMARK  151  A    between atoms: _354  and  _355
REMARK  152  A    between atoms: _358  and  _360
REMARK  153  A    between atoms: _360  and  _361
REMARK  154  A    between atoms: _364  and  _366
REMARK  155  A    between atoms: _366  and  _367
REMARK  156  A    between atoms: _366  and  _369
REMARK  157  A    between atoms: _369  and  _370
REMARK  158  A    between atoms: _370  and  _493
REMARK  159  A    between atoms: _371  and  _373
REMARK  160  A    between atoms: _373  and  _374
REMARK  161  A    between atoms: _373  and  _376
REMARK  162  A    between atoms: _376  and  _377
REMARK  163  A    between atoms: _377  and  _378
REMARK  164  A    between atoms: _383  and  _385
REMARK  165  A    between atoms: _385  and  _386
REMARK  166  A    between atoms: _388  and  _390
REMARK  167  A    between atoms: _390  and  _391
REMARK  168  A    between atoms: _390  and  _393
REMARK  169  A    between atoms: _393  and  _394
REMARK  170  A    between atoms: _397  and  _399
REMARK  171  A    between atoms: _399  and  _400
REMARK  172  A    between atoms: _399  and  _402
REMARK  173  A    between atoms: _402  and  _403
REMARK  174  A    between atoms: _405  and  _407
REMARK  175  A    between atoms: _407  and  _408
REMARK  176  A    between atoms: _410  and  _412
REMARK  177  A    between atoms: _412  and  _413
REMARK  178  A    between atoms: _415  and  _417
REMARK  179  A    between atoms: _417  and  _418
REMARK  180  A    between atoms: _417  and  _420
REMARK  181  A    between atoms: _420  and  _421
REMARK  182  A    between atoms: _426  and  _428
REMARK  183  A    between atoms: _428  and  _429
REMARK  184  A    between atoms: _428  and  _431
REMARK  185  A    between atoms: _431  and  _432
REMARK  186  A    between atoms: _435  and  _437
REMARK  187  A    between atoms: _437  and  _438
REMARK  188  A    between atoms: _437  and  _440
REMARK  189  A    between atoms: _443  and  _445
REMARK  190  A    between atoms: _445  and  _446
REMARK  191  A    between atoms: _445  and  _448
REMARK  192  A    between atoms: _448  and  _449
REMARK  193  A    between atoms: _451  and  _453
REMARK  194  A    between atoms: _453  and  _454
REMARK  195  A    between atoms: _453  and  _456
REMARK  196  A    between atoms: _456  and  _457
REMARK  197  A    between atoms: _467  and  _469
REMARK  198  A    between atoms: _469  and  _470
REMARK  199  A    between atoms: _472  and  _474
REMARK  200  A    between atoms: _474  and  _475
REMARK  201  A    between atoms: _474  and  _477
REMARK  202  A    between atoms: _477  and  _478
REMARK  203  A    between atoms: _478  and  _479
REMARK  204  A    between atoms: _482  and  _484
REMARK  205  A    between atoms: _484  and  _485
REMARK  206  A    between atoms: _487  and  _489
REMARK  207  A    between atoms: _489  and  _490
REMARK  208  A    between atoms: _489  and  _492
REMARK  209  A    between atoms: _492  and  _493
REMARK  210  A    between atoms: _494  and  _496
REMARK  211  A    between atoms: _496  and  _497
REMARK  212  A    between atoms: _500  and  _502
REMARK  213  A    between atoms: _502  and  _503
REMARK  214  A    between atoms: _502  and  _505
REMARK  215  A    between atoms: _505  and  _506
REMARK  216  A    between atoms: _506  and  _507
REMARK  217  A    between atoms: _507  and  _508
REMARK  218  A    between atoms: _517  and  _519
REMARK  219  A    between atoms: _519  and  _520
REMARK  220  A    between atoms: _519  and  _522
REMARK  221  A    between atoms: _522  and  _523
REMARK  222  A    between atoms: _523  and  _524
REMARK  223  A    between atoms: _524  and  _525
REMARK  224  A    between atoms: _525  and  _526
REMARK  225  A    between atoms: _530  and  _532
REMARK  226  A    between atoms: _532  and  _533
REMARK  227  A    between atoms: _532  and  _535
REMARK  228  A    between atoms: _535  and  _536
REMARK  229  A    between atoms: _541  and  _542
REMARK  230  A    between atoms: _544  and  _546
REMARK  231  A    between atoms: _546  and  _547
REMARK  232  A    between atoms: _549  and  _551
REMARK  233  A    between atoms: _551  and  _552
REMARK  234  A    between atoms: _551  and  _554
REMARK  235  A    between atoms: _554  and  _555
REMARK  236  A    between atoms: _558  and  _560
REMARK  237  A    between atoms: _560  and  _561
REMARK  238  A    between atoms: _560  and  _563
REMARK  239  A    between atoms: _563  and  _564
REMARK  240  A    between atoms: _569  and  _570
REMARK  241  A    between atoms: _572  and  _574
REMARK  242  A    between atoms: _574  and  _575
REMARK  243  A    between atoms: _574  and  _577
REMARK  244  A    between atoms: _577  and  _578
REMARK                            x       y       z     vdW  Elec       q    Type
REMARK                         _______ _______ _______ _____ _____    ______ ____
ROOT
ATOM      1  O   HOH     1      13.494  55.063   3.165  0.00  0.00    +0.000 OA
ENDROOT
TORSDOF 0
REMARK  Name = ../refined-set-2016/2xbv/2xbv_pocket.pdb
REMARK  244 active torsions:
REMARK  status: ('A' for Active; 'I' for Inactive)
REMARK    1  A    between atoms: _1  and  _5
REMARK    2  A    between atoms: _5  and  _6
REMARK    3  A    between atoms: _5  and  _8
REMARK    4  A    between atoms: _8  and  _9
REMARK    5  A    between atoms: _12  and  _14
REMARK    6  A    between atoms: _14  and  _15
REMARK    7  A    between atoms: _14  and  _17
REMARK    8  A    between atoms: _20  and  _22
REMARK    9  A    between atoms: _22  and  _23
REMARK   10  A    between atoms: _22  and  _25
REMARK   11  A    between atoms: _25  and  _26
REMARK   12  A    between atoms: _31  and  _33
REMARK   13  A    between atoms: _33  and  _34
REMARK   14  A    between atoms: _33  and  _36
REMARK   15  A    between atoms: _36  and  _37
REMARK   16  A    between atoms: _37  and  _38
REMARK   17  A    between atoms: _43  and  _45
REMARK   18  A    between atoms: _45  and  _46
REMARK   19  A    between atoms: _45  and  _48
REMARK   20  A    between atoms: _48  and  _49
REMARK   21  A    between atoms: _55  and  _57
REMARK   22  A    between atoms: _57  and  _58
REMARK   23  A    between atoms: _57  and  _60
REMARK   24  A    between atoms: _60  and  _61
REMARK   25  A    between atoms: _64  and  _66
REMARK   26  A    between atoms: _66  and  _67
REMARK   27  A    between atoms: _66  and  _69
REMARK   28  A    between atoms: _69  and  _70
REMARK   29  A    between atoms: _70  and  _71
REMARK   30  A    between atoms: _71  and  _72
REMARK   31  A    between atoms: _72  and  _73
REMARK   32  A    between atoms: _77  and  _79
REMARK   33  A    between atoms: _79  and  _80
REMARK   34  A    between atoms: _79  and  _82
REMARK   35  A    between atoms: _82  and  _83
REMARK   36  A    between atoms: _83  and  _84
REMARK   37  A    between atoms: _87  and  _89
REMARK   38  A    between atoms: _89  and  _90
REMARK   39  A    between atoms: _89  and  _92
REMARK   40  A    between atoms: _92  and  _93
REMARK   41  A    between atoms: _96  and  _98
REMARK   42  A    between atoms: _98  and  _99
REMARK   43  A    between atoms: _98  and  _101
REMARK   44  A    between atoms: _101  and  _102
REMARK   45  A    between atoms: _107  and  _108
REMARK   46  A    between atoms: _110  and  _112
REMARK   47  A    between atoms: _112  and  _113
REMARK   48  A    between atoms: _112  and  _115
REMARK   49  A    between atoms: _115  and  _116
REMARK   50  A    between atoms: _119  and  _121
REMARK   51  A    between atoms: _121  and  _122
REMARK   52  A    between atoms: _121  and  _124
REMARK   53  A    between atoms: _124  and  _125
REMARK   54  A    between atoms: _128  and  _130
REMARK   55  A    between atoms: _130  and  _131
REMARK   56  A    between atoms: _130  and  _133
REMARK   57  A    between atoms: _136  and  _138
REMARK   58  A    between atoms: _138  and  _139
REMARK   59  A    between atoms: _141  and  _143
REMARK   60  A    between atoms: _143  and  _144
REMARK   61  A    between atoms: _143  and  _146
REMARK   62  A    between atoms: _146  and  _147
REMARK   63  A    between atoms: _147  and  _148
REMARK   64  A    between atoms: _148  and  _149
REMARK   65  A    between atoms: _158  and  _160
REMARK   66  A    between atoms: _160  and  _161
REMARK   67  A    between atoms: _160  and  _163
REMARK   68  A    between atoms: _163  and  _164
REMARK   69  A    between atoms: _167  and  _169
REMARK   70  A    between atoms: _169  and  _170
REMARK   71  A    between atoms: _169  and  _172
REMARK   72  A    between atoms: _172  and  _173
REMARK   73  A    between atoms: _178  and  _180
REMARK   74  A    between atoms: _180  and  _181
REMARK   75  A    between atoms: _180  and  _183
REMARK   76  A    between atoms: _183  and  _184
REMARK   77  A    between atoms: _184  and  _185
REMARK   78  A    between atoms: _188  and  _190
REMARK   79  A    between atoms: _190  and  _191
REMARK   80  A    between atoms: _190  and  _193
REMARK   81  A    between atoms: _193  and  _194
REMARK   82  A    between atoms: _194  and  _195
REMARK   83  A    between atoms: _195  and  _196
REMARK   84  A    between atoms: _196  and  _197
REMARK   85  A    between atoms: _201  and  _203
REMARK   86  A    between atoms: _203  and  _204
REMARK   87  A    between atoms: _206  and  _208
REMARK   88  A    between atoms: _208  and  _209
REMARK   89  A    between atoms: _208  and  _211
REMARK   90  A    between atoms: _212  and  _213
REMARK   91  A    between atoms: _216  and  _218
REMARK   92  A    between atoms: _218  and  _219
REMARK   93  A    between atoms: _218  and  _221
REMARK   94  A    between atoms: _221  and  _222
REMARK   95  A    between atoms: _222  and  _223
REMARK   96  A    between atoms: _228  and  _230
REMARK   97  A    between atoms: _230  and  _231
REMARK   98  A    between atoms: _230  and  _233
REMARK   99  A    between atoms: _233  and  _234
REMARK  100  A    between atoms: _237  and  _239
REMARK  101  A    between atoms: _239  and  _240
REMARK  102  A    between atoms: _239  and  _242
REMARK  103  A    between atoms: _245  and  _247
REMARK  104  A    between atoms: _247  and  _248
REMARK  105  A    between atoms: _247  and  _250
REMARK  106  A    between atoms: _250  and  _251
REMARK  107  A    between atoms: _253  and  _255
REMARK  108  A    between atoms: _255  and  _256
REMARK  109  A    between atoms: _255  and  _258
REMARK  110  A    between atoms: _258  and  _259
REMARK  111  A    between atoms: _261  and  _263
REMARK  112  A    between atoms: _263  and  _264
REMARK  113  A    between atoms: _263  and  _266
REMARK  114  A    between atoms: _266  and  _267
REMARK  115  A    between atoms: _273  and  _275
REMARK  116  A    between atoms: _275  and  _276
REMARK  117  A    between atoms: _275  and  _278
REMARK  118  A    between atoms: _278  and  _279
REMARK  119  A    between atoms: _282  and  _284
REMARK  120  A    between atoms: _284  and  _285
REMARK  121  A    between atoms: _284  and  _287
REMARK  122  A    between atoms: _287  and  _288
REMARK  123  A    between atoms: _291  and  _293
REMARK  124  A    between atoms: _293  and  _294
REMARK  125  A    between atoms: _293  and  _296
REMARK  126  A    between atoms: _296  and  _297
REMARK  127  A    between atoms: _300  and  _302
REMARK  128  A    between atoms: _302  and  _303
REMARK  129  A    between atoms: _302  and  _305
REMARK  130  A    between atoms: _305  and  _306
REMARK  131  A    between atoms: _306  and  _307
REMARK  132  A    between atoms: _309  and  _311
REMARK  133  A    between atoms: _311  and  _312
REMARK  134  A    between atoms: _311  and  _314
REMARK  135  A    between atoms: _314  and  _315
REMARK  136  A    between atoms: _321  and  _323
REMARK  137  A    between atoms: _323  and  _324
REMARK  138  A    between atoms: _323  and  _326
REMARK  139  A    between atoms: _328  and  _330
REMARK  140  A    between atoms: _330  and  _331
REMARK  141  A    between atoms: _334  and  _336
REMARK  142  A    between atoms: _336  and  _337
REMARK  143  A    between atoms: _339  and  _341
REMARK  144  A    between atoms: _341  and  _342
REMARK  145  A    between atoms: _341  and  _344
REMARK  146  A    between atoms: _344  and  _345
REMARK  147  A    between atoms: _345  and  _346
REMARK  148  A    between atoms: _349  and  _351
REMARK  149  A    between atoms: _351  and  _352
REMARK  150  A    between atoms: _351  and  _354
REMARK  151  A    between atoms: _354  and  _355
REMARK  152  A    between atoms: _358  and  _360
REMARK  153  A    between atoms: _360  and  _361
REMARK  154  A    between atoms: _364  and  _366
REMARK  155  A    between atoms: _366  and  _367
REMARK  156  A    between atoms: _366  and  _369
REMARK  157  A    between atoms: _369  and  _370
REMARK  158  A    between atoms: _370  and  _493
REMARK  159  A    between atoms: _371  and  _373
REMARK  160  A    between atoms: _373  and  _374
REMARK  161  A    between atoms: _373  and  _376
REMARK  162  A    between atoms: _376  and  _377
REMARK  163  A    between atoms: _377  and  _378
REMARK  164  A    between atoms: _383  and  _385
REMARK  165  A    between atoms: _385  and  _386
REMARK  166  A    between atoms: _388  and  _390
REMARK  167  A    between atoms: _390  and  _391
REMARK  168  A    between atoms: _390  and  _393
REMARK  169  A    between atoms: _393  and  _394
REMARK  170  A    between atoms: _397  and  _399
REMARK  171  A    between atoms: _399  and  _400
REMARK  172  A    between atoms: _399  and  _402
REMARK  173  A    between atoms: _402  and  _403
REMARK  174  A    between atoms: _405  and  _407
REMARK  175  A    between atoms: _407  and  _408
REMARK  176  A    between atoms: _410  and  _412
REMARK  177  A    between atoms: _412  and  _413
REMARK  178  A    between atoms: _415  and  _417
REMARK  179  A    between atoms: _417  and  _418
REMARK  180  A    between atoms: _417  and  _420
REMARK  181  A    between atoms: _420  and  _421
REMARK  182  A    between atoms: _426  and  _428
REMARK  183  A    between atoms: _428  and  _429
REMARK  184  A    between atoms: _428  and  _431
REMARK  185  A    between atoms: _431  and  _432
REMARK  186  A    between atoms: _435  and  _437
REMARK  187  A    between atoms: _437  and  _438
REMARK  188  A    between atoms: _437  and  _440
REMARK  189  A    between atoms: _443  and  _445
REMARK  190  A    between atoms: _445  and  _446
REMARK  191  A    between atoms: _445  and  _448
REMARK  192  A    between atoms: _448  and  _449
REMARK  193  A    between atoms: _451  and  _453
REMARK  194  A    between atoms: _453  and  _454
REMARK  195  A    between atoms: _453  and  _456
REMARK  196  A    between atoms: _456  and  _457
REMARK  197  A    between atoms: _467  and  _469
REMARK  198  A    between atoms: _469  and  _470
REMARK  199  A    between atoms: _472  and  _474
REMARK  200  A    between atoms: _474  and  _475
REMARK  201  A    between atoms: _474  and  _477
REMARK  202  A    between atoms: _477  and  _478
REMARK  203  A    between atoms: _478  and  _479
REMARK  204  A    between atoms: _482  and  _484
REMARK  205  A    between atoms: _484  and  _485
REMARK  206  A    between atoms: _487  and  _489
REMARK  207  A    between atoms: _489  and  _490
REMARK  208  A    between atoms: _489  and  _492
REMARK  209  A    between atoms: _492  and  _493
REMARK  210  A    between atoms: _494  and  _496
REMARK  211  A    between atoms: _496  and  _497
REMARK  212  A    between atoms: _500  and  _502
REMARK  213  A    between atoms: _502  and  _503
REMARK  214  A    between atoms: _502  and  _505
REMARK  215  A    between atoms: _505  and  _506
REMARK  216  A    between atoms: _506  and  _507
REMARK  217  A    between atoms: _507  and  _508
REMARK  218  A    between atoms: _517  and  _519
REMARK  219  A    between atoms: _519  and  _520
REMARK  220  A    between atoms: _519  and  _522
REMARK  221  A    between atoms: _522  and  _523
REMARK  222  A    between atoms: _523  and  _524
REMARK  223  A    between atoms: _524  and  _525
REMARK  224  A    between atoms: _525  and  _526
REMARK  225  A    between atoms: _530  and  _532
REMARK  226  A    between atoms: _532  and  _533
REMARK  227  A    between atoms: _532  and  _535
REMARK  228  A    between atoms: _535  and  _536
REMARK  229  A    between atoms: _541  and  _542
REMARK  230  A    between atoms: _544  and  _546
REMARK  231  A    between atoms: _546  and  _547
REMARK  232  A    between atoms: _549  and  _551
REMARK  233  A    between atoms: _551  and  _552
REMARK  234  A    between atoms: _551  and  _554
REMARK  235  A    between atoms: _554  and  _555
REMARK  236  A    between atoms: _558  and  _560
REMARK  237  A    between atoms: _560  and  _561
REMARK  238  A    between atoms: _560  and  _563
REMARK  239  A    between atoms: _563  and  _564
REMARK  240  A    between atoms: _569  and  _570
REMARK  241  A    between atoms: _572  and  _574
REMARK  242  A    between atoms: _574  and  _575
REMARK  243  A    between atoms: _574  and  _577
REMARK  244  A    between atoms: _577  and  _578
REMARK                            x       y       z     vdW  Elec       q    Type
REMARK                         _______ _______ _______ _____ _____    ______ ____
ROOT
ATOM      1  O   HOH     1       7.373  61.967  -2.786  0.00  0.00    +0.000 OA
ENDROOT
TORSDOF 0
REMARK  Name = ../refined-set-2016/2xbv/2xbv_pocket.pdb
REMARK  244 active torsions:
REMARK  status: ('A' for Active; 'I' for Inactive)
REMARK    1  A    between atoms: _1  and  _5
REMARK    2  A    between atoms: _5  and  _6
REMARK    3  A    between atoms: _5  and  _8
REMARK    4  A    between atoms: _8  and  _9
REMARK    5  A    between atoms: _12  and  _14
REMARK    6  A    between atoms: _14  and  _15
REMARK    7  A    between atoms: _14  and  _17
REMARK    8  A    between atoms: _20  and  _22
REMARK    9  A    between atoms: _22  and  _23
REMARK   10  A    between atoms: _22  and  _25
REMARK   11  A    between atoms: _25  and  _26
REMARK   12  A    between atoms: _31  and  _33
REMARK   13  A    between atoms: _33  and  _34
REMARK   14  A    between atoms: _33  and  _36
REMARK   15  A    between atoms: _36  and  _37
REMARK   16  A    between atoms: _37  and  _38
REMARK   17  A    between atoms: _43  and  _45
REMARK   18  A    between atoms: _45  and  _46
REMARK   19  A    between atoms: _45  and  _48
REMARK   20  A    between atoms: _48  and  _49
REMARK   21  A    between atoms: _55  and  _57
REMARK   22  A    between atoms: _57  and  _58
REMARK   23  A    between atoms: _57  and  _60
REMARK   24  A    between atoms: _60  and  _61
REMARK   25  A    between atoms: _64  and  _66
REMARK   26  A    between atoms: _66  and  _67
REMARK   27  A    between atoms: _66  and  _69
REMARK   28  A    between atoms: _69  and  _70
REMARK   29  A    between atoms: _70  and  _71
REMARK   30  A    between atoms: _71  and  _72
REMARK   31  A    between atoms: _72  and  _73
REMARK   32  A    between atoms: _77  and  _79
REMARK   33  A    between atoms: _79  and  _80
REMARK   34  A    between atoms: _79  and  _82
REMARK   35  A    between atoms: _82  and  _83
REMARK   36  A    between atoms: _83  and  _84
REMARK   37  A    between atoms: _87  and  _89
REMARK   38  A    between atoms: _89  and  _90
REMARK   39  A    between atoms: _89  and  _92
REMARK   40  A    between atoms: _92  and  _93
REMARK   41  A    between atoms: _96  and  _98
REMARK   42  A    between atoms: _98  and  _99
REMARK   43  A    between atoms: _98  and  _101
REMARK   44  A    between atoms: _101  and  _102
REMARK   45  A    between atoms: _107  and  _108
REMARK   46  A    between atoms: _110  and  _112
REMARK   47  A    between atoms: _112  and  _113
REMARK   48  A    between atoms: _112  and  _115
REMARK   49  A    between atoms: _115  and  _116
REMARK   50  A    between atoms: _119  and  _121
REMARK   51  A    between atoms: _121  and  _122
REMARK   52  A    between atoms: _121  and  _124
REMARK   53  A    between atoms: _124  and  _125
REMARK   54  A    between atoms: _128  and  _130
REMARK   55  A    between atoms: _130  and  _131
REMARK   56  A    between atoms: _130  and  _133
REMARK   57  A    between atoms: _136  and  _138
REMARK   58  A    between atoms: _138  and  _139
REMARK   59  A    between atoms: _141  and  _143
REMARK   60  A    between atoms: _143  and  _144
REMARK   61  A    between atoms: _143  and  _146
REMARK   62  A    between atoms: _146  and  _147
REMARK   63  A    between atoms: _147  and  _148
REMARK   64  A    between atoms: _148  and  _149
REMARK   65  A    between atoms: _158  and  _160
REMARK   66  A    between atoms: _160  and  _161
REMARK   67  A    between atoms: _160  and  _163
REMARK   68  A    between atoms: _163  and  _164
REMARK   69  A    between atoms: _167  and  _169
REMARK   70  A    between atoms: _169  and  _170
REMARK   71  A    between atoms: _169  and  _172
REMARK   72  A    between atoms: _172  and  _173
REMARK   73  A    between atoms: _178  and  _180
REMARK   74  A    between atoms: _180  and  _181
REMARK   75  A    between atoms: _180  and  _183
REMARK   76  A    between atoms: _183  and  _184
REMARK   77  A    between atoms: _184  and  _185
REMARK   78  A    between atoms: _188  and  _190
REMARK   79  A    between atoms: _190  and  _191
REMARK   80  A    between atoms: _190  and  _193
REMARK   81  A    between atoms: _193  and  _194
REMARK   82  A    between atoms: _194  and  _195
REMARK   83  A    between atoms: _195  and  _196
REMARK   84  A    between atoms: _196  and  _197
REMARK   85  A    between atoms: _201  and  _203
REMARK   86  A    between atoms: _203  and  _204
REMARK   87  A    between atoms: _206  and  _208
REMARK   88  A    between atoms: _208  and  _209
REMARK   89  A    between atoms: _208  and  _211
REMARK   90  A    between atoms: _212  and  _213
REMARK   91  A    between atoms: _216  and  _218
REMARK   92  A    between atoms: _218  and  _219
REMARK   93  A    between atoms: _218  and  _221
REMARK   94  A    between atoms: _221  and  _222
REMARK   95  A    between atoms: _222  and  _223
REMARK   96  A    between atoms: _228  and  _230
REMARK   97  A    between atoms: _230  and  _231
REMARK   98  A    between atoms: _230  and  _233
REMARK   99  A    between atoms: _233  and  _234
REMARK  100  A    between atoms: _237  and  _239
REMARK  101  A    between atoms: _239  and  _240
REMARK  102  A    between atoms: _239  and  _242
REMARK  103  A    between atoms: _245  and  _247
REMARK  104  A    between atoms: _247  and  _248
REMARK  105  A    between atoms: _247  and  _250
REMARK  106  A    between atoms: _250  and  _251
REMARK  107  A    between atoms: _253  and  _255
REMARK  108  A    between atoms: _255  and  _256
REMARK  109  A    between atoms: _255  and  _258
REMARK  110  A    between atoms: _258  and  _259
REMARK  111  A    between atoms: _261  and  _263
REMARK  112  A    between atoms: _263  and  _264
REMARK  113  A    between atoms: _263  and  _266
REMARK  114  A    between atoms: _266  and  _267
REMARK  115  A    between atoms: _273  and  _275
REMARK  116  A    between atoms: _275  and  _276
REMARK  117  A    between atoms: _275  and  _278
REMARK  118  A    between atoms: _278  and  _279
REMARK  119  A    between atoms: _282  and  _284
REMARK  120  A    between atoms: _284  and  _285
REMARK  121  A    between atoms: _284  and  _287
REMARK  122  A    between atoms: _287  and  _288
REMARK  123  A    between atoms: _291  and  _293
REMARK  124  A    between atoms: _293  and  _294
REMARK  125  A    between atoms: _293  and  _296
REMARK  126  A    between atoms: _296  and  _297
REMARK  127  A    between atoms: _300  and  _302
REMARK  128  A    between atoms: _302  and  _303
REMARK  129  A    between atoms: _302  and  _305
REMARK  130  A    between atoms: _305  and  _306
REMARK  131  A    between atoms: _306  and  _307
REMARK  132  A    between atoms: _309  and  _311
REMARK  133  A    between atoms: _311  and  _312
REMARK  134  A    between atoms: _311  and  _314
REMARK  135  A    between atoms: _314  and  _315
REMARK  136  A    between atoms: _321  and  _323
REMARK  137  A    between atoms: _323  and  _324
REMARK  138  A    between atoms: _323  and  _326
REMARK  139  A    between atoms: _328  and  _330
REMARK  140  A    between atoms: _330  and  _331
REMARK  141  A    between atoms: _334  and  _336
REMARK  142  A    between atoms: _336  and  _337
REMARK  143  A    between atoms: _339  and  _341
REMARK  144  A    between atoms: _341  and  _342
REMARK  145  A    between atoms: _341  and  _344
REMARK  146  A    between atoms: _344  and  _345
REMARK  147  A    between atoms: _345  and  _346
REMARK  148  A    between atoms: _349  and  _351
REMARK  149  A    between atoms: _351  and  _352
REMARK  150  A    between atoms: _351  and  _354
REMARK  151  A    between atoms: _354  and  _355
REMARK  152  A    between atoms: _358  and  _360
REMARK  153  A    between atoms: _360  and  _361
REMARK  154  A    between atoms: _364  and  _366
REMARK  155  A    between atoms: _366  and  _367
REMARK  156  A    between atoms: _366  and  _369
REMARK  157  A    between atoms: _369  and  _370
REMARK  158  A    between atoms: _370  and  _493
REMARK  159  A    between atoms: _371  and  _373
REMARK  160  A    between atoms: _373  and  _374
REMARK  161  A    between atoms: _373  and  _376
REMARK  162  A    between atoms: _376  and  _377
REMARK  163  A    between atoms: _377  and  _378
REMARK  164  A    between atoms: _383  and  _385
REMARK  165  A    between atoms: _385  and  _386
REMARK  166  A    between atoms: _388  and  _390
REMARK  167  A    between atoms: _390  and  _391
REMARK  168  A    between atoms: _390  and  _393
REMARK  169  A    between atoms: _393  and  _394
REMARK  170  A    between atoms: _397  and  _399
REMARK  171  A    between atoms: _399  and  _400
REMARK  172  A    between atoms: _399  and  _402
REMARK  173  A    between atoms: _402  and  _403
REMARK  174  A    between atoms: _405  and  _407
REMARK  175  A    between atoms: _407  and  _408
REMARK  176  A    between atoms: _410  and  _412
REMARK  177  A    between atoms: _412  and  _413
REMARK  178  A    between atoms: _415  and  _417
REMARK  179  A    between atoms: _417  and  _418
REMARK  180  A    between atoms: _417  and  _420
REMARK  181  A    between atoms: _420  and  _421
REMARK  182  A    between atoms: _426  and  _428
REMARK  183  A    between atoms: _428  and  _429
REMARK  184  A    between atoms: _428  and  _431
REMARK  185  A    between atoms: _431  and  _432
REMARK  186  A    between atoms: _435  and  _437
REMARK  187  A    between atoms: _437  and  _438
REMARK  188  A    between atoms: _437  and  _440
REMARK  189  A    between atoms: _443  and  _445
REMARK  190  A    between atoms: _445  and  _446
REMARK  191  A    between atoms: _445  and  _448
REMARK  192  A    between atoms: _448  and  _449
REMARK  193  A    between atoms: _451  and  _453
REMARK  194  A    between atoms: _453  and  _454
REMARK  195  A    between atoms: _453  and  _456
REMARK  196  A    between atoms: _456  and  _457
REMARK  197  A    between atoms: _467  and  _469
REMARK  198  A    between atoms: _469  and  _470
REMARK  199  A    between atoms: _472  and  _474
REMARK  200  A    between atoms: _474  and  _475
REMARK  201  A    between atoms: _474  and  _477
REMARK  202  A    between atoms: _477  and  _478
REMARK  203  A    between atoms: _478  and  _479
REMARK  204  A    between atoms: _482  and  _484
REMARK  205  A    between atoms: _484  and  _485
REMARK  206  A    between atoms: _487  and  _489
REMARK  207  A    between atoms: _489  and  _490
REMARK  208  A    between atoms: _489  and  _492
REMARK  209  A    between atoms: _492  and  _493
REMARK  210  A    between atoms: _494  and  _496
REMARK  211  A    between atoms: _496  and  _497
REMARK  212  A    between atoms: _500  and  _502
REMARK  213  A    between atoms: _502  and  _503
REMARK  214  A    between atoms: _502  and  _505
REMARK  215  A    between atoms: _505  and  _506
REMARK  216  A    between atoms: _506  and  _507
REMARK  217  A    between atoms: _507  and  _508
REMARK  218  A    between atoms: _517  and  _519
REMARK  219  A    between atoms: _519  and  _520
REMARK  220  A    between atoms: _519  and  _522
REMARK  221  A    between atoms: _522  and  _523
REMARK  222  A    between atoms: _523  and  _524
REMARK  223  A    between atoms: _524  and  _525
REMARK  224  A    between atoms: _525  and  _526
REMARK  225  A    between atoms: _530  and  _532
REMARK  226  A    between atoms: _532  and  _533
REMARK  227  A    between atoms: _532  and  _535
REMARK  228  A    between atoms: _535  and  _536
REMARK  229  A    between atoms: _541  and  _542
REMARK  230  A    between atoms: _544  and  _546
REMARK  231  A    between atoms: _546  and  _547
REMARK  232  A    between atoms: _549  and  _551
REMARK  233  A    between atoms: _551  and  _552
REMARK  234  A    between atoms: _551  and  _554
REMARK  235  A    between atoms: _554  and  _555
REMARK  236  A    between atoms: _558  and  _560
REMARK  237  A    between atoms: _560  and  _561
REMARK  238  A    between atoms: _560  and  _563
REMARK  239  A    between atoms: _563  and  _564
REMARK  240  A    between atoms: _569  and  _570
REMARK  241  A    between atoms: _572  and  _574
REMARK  242  A    between atoms: _574  and  _575
REMARK  243  A    between atoms: _574  and  _577
REMARK  244  A    between atoms: _577  and  _578
REMARK                            x       y       z     vdW  Elec       q    Type
REMARK                         _______ _______ _______ _____ _____    ______ ____
ROOT
ATOM      1  O   HOH     1      12.677  73.431  10.150  0.00  0.00    +0.000 OA
ENDROOT
TORSDOF 0
REMARK  Name = ../refined-set-2016/2xbv/2xbv_pocket.pdb
REMARK  244 active torsions:
REMARK  status: ('A' for Active; 'I' for Inactive)
REMARK    1  A    between atoms: _1  and  _5
REMARK    2  A    between atoms: _5  and  _6
REMARK    3  A    between atoms: _5  and  _8
REMARK    4  A    between atoms: _8  and  _9
REMARK    5  A    between atoms: _12  and  _14
REMARK    6  A    between atoms: _14  and  _15
REMARK    7  A    between atoms: _14  and  _17
REMARK    8  A    between atoms: _20  and  _22
REMARK    9  A    between atoms: _22  and  _23
REMARK   10  A    between atoms: _22  and  _25
REMARK   11  A    between atoms: _25  and  _26
REMARK   12  A    between atoms: _31  and  _33
REMARK   13  A    between atoms: _33  and  _34
REMARK   14  A    between atoms: _33  and  _36
REMARK   15  A    between atoms: _36  and  _37
REMARK   16  A    between atoms: _37  and  _38
REMARK   17  A    between atoms: _43  and  _45
REMARK   18  A    between atoms: _45  and  _46
REMARK   19  A    between atoms: _45  and  _48
REMARK   20  A    between atoms: _48  and  _49
REMARK   21  A    between atoms: _55  and  _57
REMARK   22  A    between atoms: _57  and  _58
REMARK   23  A    between atoms: _57  and  _60
REMARK   24  A    between atoms: _60  and  _61
REMARK   25  A    between atoms: _64  and  _66
REMARK   26  A    between atoms: _66  and  _67
REMARK   27  A    between atoms: _66  and  _69
REMARK   28  A    between atoms: _69  and  _70
REMARK   29  A    between atoms: _70  and  _71
REMARK   30  A    between atoms: _71  and  _72
REMARK   31  A    between atoms: _72  and  _73
REMARK   32  A    between atoms: _77  and  _79
REMARK   33  A    between atoms: _79  and  _80
REMARK   34  A    between atoms: _79  and  _82
REMARK   35  A    between atoms: _82  and  _83
REMARK   36  A    between atoms: _83  and  _84
REMARK   37  A    between atoms: _87  and  _89
REMARK   38  A    between atoms: _89  and  _90
REMARK   39  A    between atoms: _89  and  _92
REMARK   40  A    between atoms: _92  and  _93
REMARK   41  A    between atoms: _96  and  _98
REMARK   42  A    between atoms: _98  and  _99
REMARK   43  A    between atoms: _98  and  _101
REMARK   44  A    between atoms: _101  and  _102
REMARK   45  A    between atoms: _107  and  _108
REMARK   46  A    between atoms: _110  and  _112
REMARK   47  A    between atoms: _112  and  _113
REMARK   48  A    between atoms: _112  and  _115
REMARK   49  A    between atoms: _115  and  _116
REMARK   50  A    between atoms: _119  and  _121
REMARK   51  A    between atoms: _121  and  _122
REMARK   52  A    between atoms: _121  and  _124
REMARK   53  A    between atoms: _124  and  _125
REMARK   54  A    between atoms: _128  and  _130
REMARK   55  A    between atoms: _130  and  _131
REMARK   56  A    between atoms: _130  and  _133
REMARK   57  A    between atoms: _136  and  _138
REMARK   58  A    between atoms: _138  and  _139
REMARK   59  A    between atoms: _141  and  _143
REMARK   60  A    between atoms: _143  and  _144
REMARK   61  A    between atoms: _143  and  _146
REMARK   62  A    between atoms: _146  and  _147
REMARK   63  A    between atoms: _147  and  _148
REMARK   64  A    between atoms: _148  and  _149
REMARK   65  A    between atoms: _158  and  _160
REMARK   66  A    between atoms: _160  and  _161
REMARK   67  A    between atoms: _160  and  _163
REMARK   68  A    between atoms: _163  and  _164
REMARK   69  A    between atoms: _167  and  _169
REMARK   70  A    between atoms: _169  and  _170
REMARK   71  A    between atoms: _169  and  _172
REMARK   72  A    between atoms: _172  and  _173
REMARK   73  A    between atoms: _178  and  _180
REMARK   74  A    between atoms: _180  and  _181
REMARK   75  A    between atoms: _180  and  _183
REMARK   76  A    between atoms: _183  and  _184
REMARK   77  A    between atoms: _184  and  _185
REMARK   78  A    between atoms: _188  and  _190
REMARK   79  A    between atoms: _190  and  _191
REMARK   80  A    between atoms: _190  and  _193
REMARK   81  A    between atoms: _193  and  _194
REMARK   82  A    between atoms: _194  and  _195
REMARK   83  A    between atoms: _195  and  _196
REMARK   84  A    between atoms: _196  and  _197
REMARK   85  A    between atoms: _201  and  _203
REMARK   86  A    between atoms: _203  and  _204
REMARK   87  A    between atoms: _206  and  _208
REMARK   88  A    between atoms: _208  and  _209
REMARK   89  A    between atoms: _208  and  _211
REMARK   90  A    between atoms: _212  and  _213
REMARK   91  A    between atoms: _216  and  _218
REMARK   92  A    between atoms: _218  and  _219
REMARK   93  A    between atoms: _218  and  _221
REMARK   94  A    between atoms: _221  and  _222
REMARK   95  A    between atoms: _222  and  _223
REMARK   96  A    between atoms: _228  and  _230
REMARK   97  A    between atoms: _230  and  _231
REMARK   98  A    between atoms: _230  and  _233
REMARK   99  A    between atoms: _233  and  _234
REMARK  100  A    between atoms: _237  and  _239
REMARK  101  A    between atoms: _239  and  _240
REMARK  102  A    between atoms: _239  and  _242
REMARK  103  A    between atoms: _245  and  _247
REMARK  104  A    between atoms: _247  and  _248
REMARK  105  A    between atoms: _247  and  _250
REMARK  106  A    between atoms: _250  and  _251
REMARK  107  A    between atoms: _253  and  _255
REMARK  108  A    between atoms: _255  and  _256
REMARK  109  A    between atoms: _255  and  _258
REMARK  110  A    between atoms: _258  and  _259
REMARK  111  A    between atoms: _261  and  _263
REMARK  112  A    between atoms: _263  and  _264
REMARK  113  A    between atoms: _263  and  _266
REMARK  114  A    between atoms: _266  and  _267
REMARK  115  A    between atoms: _273  and  _275
REMARK  116  A    between atoms: _275  and  _276
REMARK  117  A    between atoms: _275  and  _278
REMARK  118  A    between atoms: _278  and  _279
REMARK  119  A    between atoms: _282  and  _284
REMARK  120  A    between atoms: _284  and  _285
REMARK  121  A    between atoms: _284  and  _287
REMARK  122  A    between atoms: _287  and  _288
REMARK  123  A    between atoms: _291  and  _293
REMARK  124  A    between atoms: _293  and  _294
REMARK  125  A    between atoms: _293  and  _296
REMARK  126  A    between atoms: _296  and  _297
REMARK  127  A    between atoms: _300  and  _302
REMARK  128  A    between atoms: _302  and  _303
REMARK  129  A    between atoms: _302  and  _305
REMARK  130  A    between atoms: _305  and  _306
REMARK  131  A    between atoms: _306  and  _307
REMARK  132  A    between atoms: _309  and  _311
REMARK  133  A    between atoms: _311  and  _312
REMARK  134  A    between atoms: _311  and  _314
REMARK  135  A    between atoms: _314  and  _315
REMARK  136  A    between atoms: _321  and  _323
REMARK  137  A    between atoms: _323  and  _324
REMARK  138  A    between atoms: _323  and  _326
REMARK  139  A    between atoms: _328  and  _330
REMARK  140  A    between atoms: _330  and  _331
REMARK  141  A    between atoms: _334  and  _336
REMARK  142  A    between atoms: _336  and  _337
REMARK  143  A    between atoms: _339  and  _341
REMARK  144  A    between atoms: _341  and  _342
REMARK  145  A    between atoms: _341  and  _344
REMARK  146  A    between atoms: _344  and  _345
REMARK  147  A    between atoms: _345  and  _346
REMARK  148  A    between atoms: _349  and  _351
REMARK  149  A    between atoms: _351  and  _352
REMARK  150  A    between atoms: _351  and  _354
REMARK  151  A    between atoms: _354  and  _355
REMARK  152  A    between atoms: _358  and  _360
REMARK  153  A    between atoms: _360  and  _361
REMARK  154  A    between atoms: _364  and  _366
REMARK  155  A    between atoms: _366  and  _367
REMARK  156  A    between atoms: _366  and  _369
REMARK  157  A    between atoms: _369  and  _370
REMARK  158  A    between atoms: _370  and  _493
REMARK  159  A    between atoms: _371  and  _373
REMARK  160  A    between atoms: _373  and  _374
REMARK  161  A    between atoms: _373  and  _376
REMARK  162  A    between atoms: _376  and  _377
REMARK  163  A    between atoms: _377  and  _378
REMARK  164  A    between atoms: _383  and  _385
REMARK  165  A    between atoms: _385  and  _386
REMARK  166  A    between atoms: _388  and  _390
REMARK  167  A    between atoms: _390  and  _391
REMARK  168  A    between atoms: _390  and  _393
REMARK  169  A    between atoms: _393  and  _394
REMARK  170  A    between atoms: _397  and  _399
REMARK  171  A    between atoms: _399  and  _400
REMARK  172  A    between atoms: _399  and  _402
REMARK  173  A    between atoms: _402  and  _403
REMARK  174  A    between atoms: _405  and  _407
REMARK  175  A    between atoms: _407  and  _408
REMARK  176  A    between atoms: _410  and  _412
REMARK  177  A    between atoms: _412  and  _413
REMARK  178  A    between atoms: _415  and  _417
REMARK  179  A    between atoms: _417  and  _418
REMARK  180  A    between atoms: _417  and  _420
REMARK  181  A    between atoms: _420  and  _421
REMARK  182  A    between atoms: _426  and  _428
REMARK  183  A    between atoms: _428  and  _429
REMARK  184  A    between atoms: _428  and  _431
REMARK  185  A    between atoms: _431  and  _432
REMARK  186  A    between atoms: _435  and  _437
REMARK  187  A    between atoms: _437  and  _438
REMARK  188  A    between atoms: _437  and  _440
REMARK  189  A    between atoms: _443  and  _445
REMARK  190  A    between atoms: _445  and  _446
REMARK  191  A    between atoms: _445  and  _448
REMARK  192  A    between atoms: _448  and  _449
REMARK  193  A    between atoms: _451  and  _453
REMARK  194  A    between atoms: _453  and  _454
REMARK  195  A    between atoms: _453  and  _456
REMARK  196  A    between atoms: _456  and  _457
REMARK  197  A    between atoms: _467  and  _469
REMARK  198  A    between atoms: _469  and  _470
REMARK  199  A    between atoms: _472  and  _474
REMARK  200  A    between atoms: _474  and  _475
REMARK  201  A    between atoms: _474  and  _477
REMARK  202  A    between atoms: _477  and  _478
REMARK  203  A    between atoms: _478  and  _479
REMARK  204  A    between atoms: _482  and  _484
REMARK  205  A    between atoms: _484  and  _485
REMARK  206  A    between atoms: _487  and  _489
REMARK  207  A    between atoms: _489  and  _490
REMARK  208  A    between atoms: _489  and  _492
REMARK  209  A    between atoms: _492  and  _493
REMARK  210  A    between atoms: _494  and  _496
REMARK  211  A    between atoms: _496  and  _497
REMARK  212  A    between atoms: _500  and  _502
REMARK  213  A    between atoms: _502  and  _503
REMARK  214  A    between atoms: _502  and  _505
REMARK  215  A    between atoms: _505  and  _506
REMARK  216  A    between atoms: _506  and  _507
REMARK  217  A    between atoms: _507  and  _508
REMARK  218  A    between atoms: _517  and  _519
REMARK  219  A    between atoms: _519  and  _520
REMARK  220  A    between atoms: _519  and  _522
REMARK  221  A    between atoms: _522  and  _523
REMARK  222  A    between atoms: _523  and  _524
REMARK  223  A    between atoms: _524  and  _525
REMARK  224  A    between atoms: _525  and  _526
REMARK  225  A    between atoms: _530  and  _532
REMARK  226  A    between atoms: _532  and  _533
REMARK  227  A    between atoms: _532  and  _535
REMARK  228  A    between atoms: _535  and  _536
REMARK  229  A    between atoms: _541  and  _542
REMARK  230  A    between atoms: _544  and  _546
REMARK  231  A    between atoms: _546  and  _547
REMARK  232  A    between atoms: _549  and  _551
REMARK  233  A    between atoms: _551  and  _552
REMARK  234  A    between atoms: _551  and  _554
REMARK  235  A    between atoms: _554  and  _555
REMARK  236  A    between atoms: _558  and  _560
REMARK  237  A    between atoms: _560  and  _561
REMARK  238  A    between atoms: _560  and  _563
REMARK  239  A    between atoms: _563  and  _564
REMARK  240  A    between atoms: _569  and  _570
REMARK  241  A    between atoms: _572  and  _574
REMARK  242  A    between atoms: _574  and  _575
REMARK  243  A    between atoms: _574  and  _577
REMARK  244  A    between atoms: _577  and  _578
REMARK                            x       y       z     vdW  Elec       q    Type
REMARK                         _______ _______ _______ _____ _____    ______ ____
ROOT
ATOM      1  O   HOH     1       9.397  72.906  11.256  0.00  0.00    +0.000 OA
ENDROOT
TORSDOF 0
REMARK  Name = ../refined-set-2016/2xbv/2xbv_pocket.pdb
REMARK  244 active torsions:
REMARK  status: ('A' for Active; 'I' for Inactive)
REMARK    1  A    between atoms: _1  and  _5
REMARK    2  A    between atoms: _5  and  _6
REMARK    3  A    between atoms: _5  and  _8
REMARK    4  A    between atoms: _8  and  _9
REMARK    5  A    between atoms: _12  and  _14
REMARK    6  A    between atoms: _14  and  _15
REMARK    7  A    between atoms: _14  and  _17
REMARK    8  A    between atoms: _20  and  _22
REMARK    9  A    between atoms: _22  and  _23
REMARK   10  A    between atoms: _22  and  _25
REMARK   11  A    between atoms: _25  and  _26
REMARK   12  A    between atoms: _31  and  _33
REMARK   13  A    between atoms: _33  and  _34
REMARK   14  A    between atoms: _33  and  _36
REMARK   15  A    between atoms: _36  and  _37
REMARK   16  A    between atoms: _37  and  _38
REMARK   17  A    between atoms: _43  and  _45
REMARK   18  A    between atoms: _45  and  _46
REMARK   19  A    between atoms: _45  and  _48
REMARK   20  A    between atoms: _48  and  _49
REMARK   21  A    between atoms: _55  and  _57
REMARK   22  A    between atoms: _57  and  _58
REMARK   23  A    between atoms: _57  and  _60
REMARK   24  A    between atoms: _60  and  _61
REMARK   25  A    between atoms: _64  and  _66
REMARK   26  A    between atoms: _66  and  _67
REMARK   27  A    between atoms: _66  and  _69
REMARK   28  A    between atoms: _69  and  _70
REMARK   29  A    between atoms: _70  and  _71
REMARK   30  A    between atoms: _71  and  _72
REMARK   31  A    between atoms: _72  and  _73
REMARK   32  A    between atoms: _77  and  _79
REMARK   33  A    between atoms: _79  and  _80
REMARK   34  A    between atoms: _79  and  _82
REMARK   35  A    between atoms: _82  and  _83
REMARK   36  A    between atoms: _83  and  _84
REMARK   37  A    between atoms: _87  and  _89
REMARK   38  A    between atoms: _89  and  _90
REMARK   39  A    between atoms: _89  and  _92
REMARK   40  A    between atoms: _92  and  _93
REMARK   41  A    between atoms: _96  and  _98
REMARK   42  A    between atoms: _98  and  _99
REMARK   43  A    between atoms: _98  and  _101
REMARK   44  A    between atoms: _101  and  _102
REMARK   45  A    between atoms: _107  and  _108
REMARK   46  A    between atoms: _110  and  _112
REMARK   47  A    between atoms: _112  and  _113
REMARK   48  A    between atoms: _112  and  _115
REMARK   49  A    between atoms: _115  and  _116
REMARK   50  A    between atoms: _119  and  _121
REMARK   51  A    between atoms: _121  and  _122
REMARK   52  A    between atoms: _121  and  _124
REMARK   53  A    between atoms: _124  and  _125
REMARK   54  A    between atoms: _128  and  _130
REMARK   55  A    between atoms: _130  and  _131
REMARK   56  A    between atoms: _130  and  _133
REMARK   57  A    between atoms: _136  and  _138
REMARK   58  A    between atoms: _138  and  _139
REMARK   59  A    between atoms: _141  and  _143
REMARK   60  A    between atoms: _143  and  _144
REMARK   61  A    between atoms: _143  and  _146
REMARK   62  A    between atoms: _146  and  _147
REMARK   63  A    between atoms: _147  and  _148
REMARK   64  A    between atoms: _148  and  _149
REMARK   65  A    between atoms: _158  and  _160
REMARK   66  A    between atoms: _160  and  _161
REMARK   67  A    between atoms: _160  and  _163
REMARK   68  A    between atoms: _163  and  _164
REMARK   69  A    between atoms: _167  and  _169
REMARK   70  A    between atoms: _169  and  _170
REMARK   71  A    between atoms: _169  and  _172
REMARK   72  A    between atoms: _172  and  _173
REMARK   73  A    between atoms: _178  and  _180
REMARK   74  A    between atoms: _180  and  _181
REMARK   75  A    between atoms: _180  and  _183
REMARK   76  A    between atoms: _183  and  _184
REMARK   77  A    between atoms: _184  and  _185
REMARK   78  A    between atoms: _188  and  _190
REMARK   79  A    between atoms: _190  and  _191
REMARK   80  A    between atoms: _190  and  _193
REMARK   81  A    between atoms: _193  and  _194
REMARK   82  A    between atoms: _194  and  _195
REMARK   83  A    between atoms: _195  and  _196
REMARK   84  A    between atoms: _196  and  _197
REMARK   85  A    between atoms: _201  and  _203
REMARK   86  A    between atoms: _203  and  _204
REMARK   87  A    between atoms: _206  and  _208
REMARK   88  A    between atoms: _208  and  _209
REMARK   89  A    between atoms: _208  and  _211
REMARK   90  A    between atoms: _212  and  _213
REMARK   91  A    between atoms: _216  and  _218
REMARK   92  A    between atoms: _218  and  _219
REMARK   93  A    between atoms: _218  and  _221
REMARK   94  A    between atoms: _221  and  _222
REMARK   95  A    between atoms: _222  and  _223
REMARK   96  A    between atoms: _228  and  _230
REMARK   97  A    between atoms: _230  and  _231
REMARK   98  A    between atoms: _230  and  _233
REMARK   99  A    between atoms: _233  and  _234
REMARK  100  A    between atoms: _237  and  _239
REMARK  101  A    between atoms: _239  and  _240
REMARK  102  A    between atoms: _239  and  _242
REMARK  103  A    between atoms: _245  and  _247
REMARK  104  A    between atoms: _247  and  _248
REMARK  105  A    between atoms: _247  and  _250
REMARK  106  A    between atoms: _250  and  _251
REMARK  107  A    between atoms: _253  and  _255
REMARK  108  A    between atoms: _255  and  _256
REMARK  109  A    between atoms: _255  and  _258
REMARK  110  A    between atoms: _258  and  _259
REMARK  111  A    between atoms: _261  and  _263
REMARK  112  A    between atoms: _263  and  _264
REMARK  113  A    between atoms: _263  and  _266
REMARK  114  A    between atoms: _266  and  _267
REMARK  115  A    between atoms: _273  and  _275
REMARK  116  A    between atoms: _275  and  _276
REMARK  117  A    between atoms: _275  and  _278
REMARK  118  A    between atoms: _278  and  _279
REMARK  119  A    between atoms: _282  and  _284
REMARK  120  A    between atoms: _284  and  _285
REMARK  121  A    between atoms: _284  and  _287
REMARK  122  A    between atoms: _287  and  _288
REMARK  123  A    between atoms: _291  and  _293
REMARK  124  A    between atoms: _293  and  _294
REMARK  125  A    between atoms: _293  and  _296
REMARK  126  A    between atoms: _296  and  _297
REMARK  127  A    between atoms: _300  and  _302
REMARK  128  A    between atoms: _302  and  _303
REMARK  129  A    between atoms: _302  and  _305
REMARK  130  A    between atoms: _305  and  _306
REMARK  131  A    between atoms: _306  and  _307
REMARK  132  A    between atoms: _309  and  _311
REMARK  133  A    between atoms: _311  and  _312
REMARK  134  A    between atoms: _311  and  _314
REMARK  135  A    between atoms: _314  and  _315
REMARK  136  A    between atoms: _321  and  _323
REMARK  137  A    between atoms: _323  and  _324
REMARK  138  A    between atoms: _323  and  _326
REMARK  139  A    between atoms: _328  and  _330
REMARK  140  A    between atoms: _330  and  _331
REMARK  141  A    between atoms: _334  and  _336
REMARK  142  A    between atoms: _336  and  _337
REMARK  143  A    between atoms: _339  and  _341
REMARK  144  A    between atoms: _341  and  _342
REMARK  145  A    between atoms: _341  and  _344
REMARK  146  A    between atoms: _344  and  _345
REMARK  147  A    between atoms: _345  and  _346
REMARK  148  A    between atoms: _349  and  _351
REMARK  149  A    between atoms: _351  and  _352
REMARK  150  A    between atoms: _351  and  _354
REMARK  151  A    between atoms: _354  and  _355
REMARK  152  A    between atoms: _358  and  _360
REMARK  153  A    between atoms: _360  and  _361
REMARK  154  A    between atoms: _364  and  _366
REMARK  155  A    between atoms: _366  and  _367
REMARK  156  A    between atoms: _366  and  _369
REMARK  157  A    between atoms: _369  and  _370
REMARK  158  A    between atoms: _370  and  _493
REMARK  159  A    between atoms: _371  and  _373
REMARK  160  A    between atoms: _373  and  _374
REMARK  161  A    between atoms: _373  and  _376
REMARK  162  A    between atoms: _376  and  _377
REMARK  163  A    between atoms: _377  and  _378
REMARK  164  A    between atoms: _383  and  _385
REMARK  165  A    between atoms: _385  and  _386
REMARK  166  A    between atoms: _388  and  _390
REMARK  167  A    between atoms: _390  and  _391
REMARK  168  A    between atoms: _390  and  _393
REMARK  169  A    between atoms: _393  and  _394
REMARK  170  A    between atoms: _397  and  _399
REMARK  171  A    between atoms: _399  and  _400
REMARK  172  A    between atoms: _399  and  _402
REMARK  173  A    between atoms: _402  and  _403
REMARK  174  A    between atoms: _405  and  _407
REMARK  175  A    between atoms: _407  and  _408
REMARK  176  A    between atoms: _410  and  _412
REMARK  177  A    between atoms: _412  and  _413
REMARK  178  A    between atoms: _415  and  _417
REMARK  179  A    between atoms: _417  and  _418
REMARK  180  A    between atoms: _417  and  _420
REMARK  181  A    between atoms: _420  and  _421
REMARK  182  A    between atoms: _426  and  _428
REMARK  183  A    between atoms: _428  and  _429
REMARK  184  A    between atoms: _428  and  _431
REMARK  185  A    between atoms: _431  and  _432
REMARK  186  A    between atoms: _435  and  _437
REMARK  187  A    between atoms: _437  and  _438
REMARK  188  A    between atoms: _437  and  _440
REMARK  189  A    between atoms: _443  and  _445
REMARK  190  A    between atoms: _445  and  _446
REMARK  191  A    between atoms: _445  and  _448
REMARK  192  A    between atoms: _448  and  _449
REMARK  193  A    between atoms: _451  and  _453
REMARK  194  A    between atoms: _453  and  _454
REMARK  195  A    between atoms: _453  and  _456
REMARK  196  A    between atoms: _456  and  _457
REMARK  197  A    between atoms: _467  and  _469
REMARK  198  A    between atoms: _469  and  _470
REMARK  199  A    between atoms: _472  and  _474
REMARK  200  A    between atoms: _474  and  _475
REMARK  201  A    between atoms: _474  and  _477
REMARK  202  A    between atoms: _477  and  _478
REMARK  203  A    between atoms: _478  and  _479
REMARK  204  A    between atoms: _482  and  _484
REMARK  205  A    between atoms: _484  and  _485
REMARK  206  A    between atoms: _487  and  _489
REMARK  207  A    between atoms: _489  and  _490
REMARK  208  A    between atoms: _489  and  _492
REMARK  209  A    between atoms: _492  and  _493
REMARK  210  A    between atoms: _494  and  _496
REMARK  211  A    between atoms: _496  and  _497
REMARK  212  A    between atoms: _500  and  _502
REMARK  213  A    between atoms: _502  and  _503
REMARK  214  A    between atoms: _502  and  _505
REMARK  215  A    between atoms: _505  and  _506
REMARK  216  A    between atoms: _506  and  _507
REMARK  217  A    between atoms: _507  and  _508
REMARK  218  A    between atoms: _517  and  _519
REMARK  219  A    between atoms: _519  and  _520
REMARK  220  A    between atoms: _519  and  _522
REMARK  221  A    between atoms: _522  and  _523
REMARK  222  A    between atoms: _523  and  _524
REMARK  223  A    between atoms: _524  and  _525
REMARK  224  A    between atoms: _525  and  _526
REMARK  225  A    between atoms: _530  and  _532
REMARK  226  A    between atoms: _532  and  _533
REMARK  227  A    between atoms: _532  and  _535
REMARK  228  A    between atoms: _535  and  _536
REMARK  229  A    between atoms: _541  and  _542
REMARK  230  A    between atoms: _544  and  _546
REMARK  231  A    between atoms: _546  and  _547
REMARK  232  A    between atoms: _549  and  _551
REMARK  233  A    between atoms: _551  and  _552
REMARK  234  A    between atoms: _551  and  _554
REMARK  235  A    between atoms: _554  and  _555
REMARK  236  A    between atoms: _558  and  _560
REMARK  237  A    between atoms: _560  and  _561
REMARK  238  A    between atoms: _560  and  _563
REMARK  239  A    between atoms: _563  and  _564
REMARK  240  A    between atoms: _569  and  _570
REMARK  241  A    between atoms: _572  and  _574
REMARK  242  A    between atoms: _574  and  _575
REMARK  243  A    between atoms: _574  and  _577
REMARK  244  A    between atoms: _577  and  _578
REMARK                            x       y       z     vdW  Elec       q    Type
REMARK                         _______ _______ _______ _____ _____    ______ ____
ROOT
ATOM      1  O   HOH     1       1.418  53.911   9.268  0.00  0.00    +0.000 OA
ENDROOT
TORSDOF 0
REMARK  Name = ../refined-set-2016/2xbv/2xbv_pocket.pdb
REMARK  244 active torsions:
REMARK  status: ('A' for Active; 'I' for Inactive)
REMARK    1  A    between atoms: _1  and  _5
REMARK    2  A    between atoms: _5  and  _6
REMARK    3  A    between atoms: _5  and  _8
REMARK    4  A    between atoms: _8  and  _9
REMARK    5  A    between atoms: _12  and  _14
REMARK    6  A    between atoms: _14  and  _15
REMARK    7  A    between atoms: _14  and  _17
REMARK    8  A    between atoms: _20  and  _22
REMARK    9  A    between atoms: _22  and  _23
REMARK   10  A    between atoms: _22  and  _25
REMARK   11  A    between atoms: _25  and  _26
REMARK   12  A    between atoms: _31  and  _33
REMARK   13  A    between atoms: _33  and  _34
REMARK   14  A    between atoms: _33  and  _36
REMARK   15  A    between atoms: _36  and  _37
REMARK   16  A    between atoms: _37  and  _38
REMARK   17  A    between atoms: _43  and  _45
REMARK   18  A    between atoms: _45  and  _46
REMARK   19  A    between atoms: _45  and  _48
REMARK   20  A    between atoms: _48  and  _49
REMARK   21  A    between atoms: _55  and  _57
REMARK   22  A    between atoms: _57  and  _58
REMARK   23  A    between atoms: _57  and  _60
REMARK   24  A    between atoms: _60  and  _61
REMARK   25  A    between atoms: _64  and  _66
REMARK   26  A    between atoms: _66  and  _67
REMARK   27  A    between atoms: _66  and  _69
REMARK   28  A    between atoms: _69  and  _70
REMARK   29  A    between atoms: _70  and  _71
REMARK   30  A    between atoms: _71  and  _72
REMARK   31  A    between atoms: _72  and  _73
REMARK   32  A    between atoms: _77  and  _79
REMARK   33  A    between atoms: _79  and  _80
REMARK   34  A    between atoms: _79  and  _82
REMARK   35  A    between atoms: _82  and  _83
REMARK   36  A    between atoms: _83  and  _84
REMARK   37  A    between atoms: _87  and  _89
REMARK   38  A    between atoms: _89  and  _90
REMARK   39  A    between atoms: _89  and  _92
REMARK   40  A    between atoms: _92  and  _93
REMARK   41  A    between atoms: _96  and  _98
REMARK   42  A    between atoms: _98  and  _99
REMARK   43  A    between atoms: _98  and  _101
REMARK   44  A    between atoms: _101  and  _102
REMARK   45  A    between atoms: _107  and  _108
REMARK   46  A    between atoms: _110  and  _112
REMARK   47  A    between atoms: _112  and  _113
REMARK   48  A    between atoms: _112  and  _115
REMARK   49  A    between atoms: _115  and  _116
REMARK   50  A    between atoms: _119  and  _121
REMARK   51  A    between atoms: _121  and  _122
REMARK   52  A    between atoms: _121  and  _124
REMARK   53  A    between atoms: _124  and  _125
REMARK   54  A    between atoms: _128  and  _130
REMARK   55  A    between atoms: _130  and  _131
REMARK   56  A    between atoms: _130  and  _133
REMARK   57  A    between atoms: _136  and  _138
REMARK   58  A    between atoms: _138  and  _139
REMARK   59  A    between atoms: _141  and  _143
REMARK   60  A    between atoms: _143  and  _144
REMARK   61  A    between atoms: _143  and  _146
REMARK   62  A    between atoms: _146  and  _147
REMARK   63  A    between atoms: _147  and  _148
REMARK   64  A    between atoms: _148  and  _149
REMARK   65  A    between atoms: _158  and  _160
REMARK   66  A    between atoms: _160  and  _161
REMARK   67  A    between atoms: _160  and  _163
REMARK   68  A    between atoms: _163  and  _164
REMARK   69  A    between atoms: _167  and  _169
REMARK   70  A    between atoms: _169  and  _170
REMARK   71  A    between atoms: _169  and  _172
REMARK   72  A    between atoms: _172  and  _173
REMARK   73  A    between atoms: _178  and  _180
REMARK   74  A    between atoms: _180  and  _181
REMARK   75  A    between atoms: _180  and  _183
REMARK   76  A    between atoms: _183  and  _184
REMARK   77  A    between atoms: _184  and  _185
REMARK   78  A    between atoms: _188  and  _190
REMARK   79  A    between atoms: _190  and  _191
REMARK   80  A    between atoms: _190  and  _193
REMARK   81  A    between atoms: _193  and  _194
REMARK   82  A    between atoms: _194  and  _195
REMARK   83  A    between atoms: _195  and  _196
REMARK   84  A    between atoms: _196  and  _197
REMARK   85  A    between atoms: _201  and  _203
REMARK   86  A    between atoms: _203  and  _204
REMARK   87  A    between atoms: _206  and  _208
REMARK   88  A    between atoms: _208  and  _209
REMARK   89  A    between atoms: _208  and  _211
REMARK   90  A    between atoms: _212  and  _213
REMARK   91  A    between atoms: _216  and  _218
REMARK   92  A    between atoms: _218  and  _219
REMARK   93  A    between atoms: _218  and  _221
REMARK   94  A    between atoms: _221  and  _222
REMARK   95  A    between atoms: _222  and  _223
REMARK   96  A    between atoms: _228  and  _230
REMARK   97  A    between atoms: _230  and  _231
REMARK   98  A    between atoms: _230  and  _233
REMARK   99  A    between atoms: _233  and  _234
REMARK  100  A    between atoms: _237  and  _239
REMARK  101  A    between atoms: _239  and  _240
REMARK  102  A    between atoms: _239  and  _242
REMARK  103  A    between atoms: _245  and  _247
REMARK  104  A    between atoms: _247  and  _248
REMARK  105  A    between atoms: _247  and  _250
REMARK  106  A    between atoms: _250  and  _251
REMARK  107  A    between atoms: _253  and  _255
REMARK  108  A    between atoms: _255  and  _256
REMARK  109  A    between atoms: _255  and  _258
REMARK  110  A    between atoms: _258  and  _259
REMARK  111  A    between atoms: _261  and  _263
REMARK  112  A    between atoms: _263  and  _264
REMARK  113  A    between atoms: _263  and  _266
REMARK  114  A    between atoms: _266  and  _267
REMARK  115  A    between atoms: _273  and  _275
REMARK  116  A    between atoms: _275  and  _276
REMARK  117  A    between atoms: _275  and  _278
REMARK  118  A    between atoms: _278  and  _279
REMARK  119  A    between atoms: _282  and  _284
REMARK  120  A    between atoms: _284  and  _285
REMARK  121  A    between atoms: _284  and  _287
REMARK  122  A    between atoms: _287  and  _288
REMARK  123  A    between atoms: _291  and  _293
REMARK  124  A    between atoms: _293  and  _294
REMARK  125  A    between atoms: _293  and  _296
REMARK  126  A    between atoms: _296  and  _297
REMARK  127  A    between atoms: _300  and  _302
REMARK  128  A    between atoms: _302  and  _303
REMARK  129  A    between atoms: _302  and  _305
REMARK  130  A    between atoms: _305  and  _306
REMARK  131  A    between atoms: _306  and  _307
REMARK  132  A    between atoms: _309  and  _311
REMARK  133  A    between atoms: _311  and  _312
REMARK  134  A    between atoms: _311  and  _314
REMARK  135  A    between atoms: _314  and  _315
REMARK  136  A    between atoms: _321  and  _323
REMARK  137  A    between atoms: _323  and  _324
REMARK  138  A    between atoms: _323  and  _326
REMARK  139  A    between atoms: _328  and  _330
REMARK  140  A    between atoms: _330  and  _331
REMARK  141  A    between atoms: _334  and  _336
REMARK  142  A    between atoms: _336  and  _337
REMARK  143  A    between atoms: _339  and  _341
REMARK  144  A    between atoms: _341  and  _342
REMARK  145  A    between atoms: _341  and  _344
REMARK  146  A    between atoms: _344  and  _345
REMARK  147  A    between atoms: _345  and  _346
REMARK  148  A    between atoms: _349  and  _351
REMARK  149  A    between atoms: _351  and  _352
REMARK  150  A    between atoms: _351  and  _354
REMARK  151  A    between atoms: _354  and  _355
REMARK  152  A    between atoms: _358  and  _360
REMARK  153  A    between atoms: _360  and  _361
REMARK  154  A    between atoms: _364  and  _366
REMARK  155  A    between atoms: _366  and  _367
REMARK  156  A    between atoms: _366  and  _369
REMARK  157  A    between atoms: _369  and  _370
REMARK  158  A    between atoms: _370  and  _493
REMARK  159  A    between atoms: _371  and  _373
REMARK  160  A    between atoms: _373  and  _374
REMARK  161  A    between atoms: _373  and  _376
REMARK  162  A    between atoms: _376  and  _377
REMARK  163  A    between atoms: _377  and  _378
REMARK  164  A    between atoms: _383  and  _385
REMARK  165  A    between atoms: _385  and  _386
REMARK  166  A    between atoms: _388  and  _390
REMARK  167  A    between atoms: _390  and  _391
REMARK  168  A    between atoms: _390  and  _393
REMARK  169  A    between atoms: _393  and  _394
REMARK  170  A    between atoms: _397  and  _399
REMARK  171  A    between atoms: _399  and  _400
REMARK  172  A    between atoms: _399  and  _402
REMARK  173  A    between atoms: _402  and  _403
REMARK  174  A    between atoms: _405  and  _407
REMARK  175  A    between atoms: _407  and  _408
REMARK  176  A    between atoms: _410  and  _412
REMARK  177  A    between atoms: _412  and  _413
REMARK  178  A    between atoms: _415  and  _417
REMARK  179  A    between atoms: _417  and  _418
REMARK  180  A    between atoms: _417  and  _420
REMARK  181  A    between atoms: _420  and  _421
REMARK  182  A    between atoms: _426  and  _428
REMARK  183  A    between atoms: _428  and  _429
REMARK  184  A    between atoms: _428  and  _431
REMARK  185  A    between atoms: _431  and  _432
REMARK  186  A    between atoms: _435  and  _437
REMARK  187  A    between atoms: _437  and  _438
REMARK  188  A    between atoms: _437  and  _440
REMARK  189  A    between atoms: _443  and  _445
REMARK  190  A    between atoms: _445  and  _446
REMARK  191  A    between atoms: _445  and  _448
REMARK  192  A    between atoms: _448  and  _449
REMARK  193  A    between atoms: _451  and  _453
REMARK  194  A    between atoms: _453  and  _454
REMARK  195  A    between atoms: _453  and  _456
REMARK  196  A    between atoms: _456  and  _457
REMARK  197  A    between atoms: _467  and  _469
REMARK  198  A    between atoms: _469  and  _470
REMARK  199  A    between atoms: _472  and  _474
REMARK  200  A    between atoms: _474  and  _475
REMARK  201  A    between atoms: _474  and  _477
REMARK  202  A    between atoms: _477  and  _478
REMARK  203  A    between atoms: _478  and  _479
REMARK  204  A    between atoms: _482  and  _484
REMARK  205  A    between atoms: _484  and  _485
REMARK  206  A    between atoms: _487  and  _489
REMARK  207  A    between atoms: _489  and  _490
REMARK  208  A    between atoms: _489  and  _492
REMARK  209  A    between atoms: _492  and  _493
REMARK  210  A    between atoms: _494  and  _496
REMARK  211  A    between atoms: _496  and  _497
REMARK  212  A    between atoms: _500  and  _502
REMARK  213  A    between atoms: _502  and  _503
REMARK  214  A    between atoms: _502  and  _505
REMARK  215  A    between atoms: _505  and  _506
REMARK  216  A    between atoms: _506  and  _507
REMARK  217  A    between atoms: _507  and  _508
REMARK  218  A    between atoms: _517  and  _519
REMARK  219  A    between atoms: _519  and  _520
REMARK  220  A    between atoms: _519  and  _522
REMARK  221  A    between atoms: _522  and  _523
REMARK  222  A    between atoms: _523  and  _524
REMARK  223  A    between atoms: _524  and  _525
REMARK  224  A    between atoms: _525  and  _526
REMARK  225  A    between atoms: _530  and  _532
REMARK  226  A    between atoms: _532  and  _533
REMARK  227  A    between atoms: _532  and  _535
REMARK  228  A    between atoms: _535  and  _536
REMARK  229  A    between atoms: _541  and  _542
REMARK  230  A    between atoms: _544  and  _546
REMARK  231  A    between atoms: _546  and  _547
REMARK  232  A    between atoms: _549  and  _551
REMARK  233  A    between atoms: _551  and  _552
REMARK  234  A    between atoms: _551  and  _554
REMARK  235  A    between atoms: _554  and  _555
REMARK  236  A    between atoms: _558  and  _560
REMARK  237  A    between atoms: _560  and  _561
REMARK  238  A    between atoms: _560  and  _563
REMARK  239  A    between atoms: _563  and  _564
REMARK  240  A    between atoms: _569  and  _570
REMARK  241  A    between atoms: _572  and  _574
REMARK  242  A    between atoms: _574  and  _575
REMARK  243  A    between atoms: _574  and  _577
REMARK  244  A    between atoms: _577  and  _578
REMARK                            x       y       z     vdW  Elec       q    Type
REMARK                         _______ _______ _______ _____ _____    ______ ____
ROOT
ATOM      1  O   HOH     1       3.941  53.848   5.556  0.00  0.00    +0.000 OA
ENDROOT
TORSDOF 0
REMARK  Name = ../refined-set-2016/2xbv/2xbv_pocket.pdb
REMARK  244 active torsions:
REMARK  status: ('A' for Active; 'I' for Inactive)
REMARK    1  A    between atoms: _1  and  _5
REMARK    2  A    between atoms: _5  and  _6
REMARK    3  A    between atoms: _5  and  _8
REMARK    4  A    between atoms: _8  and  _9
REMARK    5  A    between atoms: _12  and  _14
REMARK    6  A    between atoms: _14  and  _15
REMARK    7  A    between atoms: _14  and  _17
REMARK    8  A    between atoms: _20  and  _22
REMARK    9  A    between atoms: _22  and  _23
REMARK   10  A    between atoms: _22  and  _25
REMARK   11  A    between atoms: _25  and  _26
REMARK   12  A    between atoms: _31  and  _33
REMARK   13  A    between atoms: _33  and  _34
REMARK   14  A    between atoms: _33  and  _36
REMARK   15  A    between atoms: _36  and  _37
REMARK   16  A    between atoms: _37  and  _38
REMARK   17  A    between atoms: _43  and  _45
REMARK   18  A    between atoms: _45  and  _46
REMARK   19  A    between atoms: _45  and  _48
REMARK   20  A    between atoms: _48  and  _49
REMARK   21  A    between atoms: _55  and  _57
REMARK   22  A    between atoms: _57  and  _58
REMARK   23  A    between atoms: _57  and  _60
REMARK   24  A    between atoms: _60  and  _61
REMARK   25  A    between atoms: _64  and  _66
REMARK   26  A    between atoms: _66  and  _67
REMARK   27  A    between atoms: _66  and  _69
REMARK   28  A    between atoms: _69  and  _70
REMARK   29  A    between atoms: _70  and  _71
REMARK   30  A    between atoms: _71  and  _72
REMARK   31  A    between atoms: _72  and  _73
REMARK   32  A    between atoms: _77  and  _79
REMARK   33  A    between atoms: _79  and  _80
REMARK   34  A    between atoms: _79  and  _82
REMARK   35  A    between atoms: _82  and  _83
REMARK   36  A    between atoms: _83  and  _84
REMARK   37  A    between atoms: _87  and  _89
REMARK   38  A    between atoms: _89  and  _90
REMARK   39  A    between atoms: _89  and  _92
REMARK   40  A    between atoms: _92  and  _93
REMARK   41  A    between atoms: _96  and  _98
REMARK   42  A    between atoms: _98  and  _99
REMARK   43  A    between atoms: _98  and  _101
REMARK   44  A    between atoms: _101  and  _102
REMARK   45  A    between atoms: _107  and  _108
REMARK   46  A    between atoms: _110  and  _112
REMARK   47  A    between atoms: _112  and  _113
REMARK   48  A    between atoms: _112  and  _115
REMARK   49  A    between atoms: _115  and  _116
REMARK   50  A    between atoms: _119  and  _121
REMARK   51  A    between atoms: _121  and  _122
REMARK   52  A    between atoms: _121  and  _124
REMARK   53  A    between atoms: _124  and  _125
REMARK   54  A    between atoms: _128  and  _130
REMARK   55  A    between atoms: _130  and  _131
REMARK   56  A    between atoms: _130  and  _133
REMARK   57  A    between atoms: _136  and  _138
REMARK   58  A    between atoms: _138  and  _139
REMARK   59  A    between atoms: _141  and  _143
REMARK   60  A    between atoms: _143  and  _144
REMARK   61  A    between atoms: _143  and  _146
REMARK   62  A    between atoms: _146  and  _147
REMARK   63  A    between atoms: _147  and  _148
REMARK   64  A    between atoms: _148  and  _149
REMARK   65  A    between atoms: _158  and  _160
REMARK   66  A    between atoms: _160  and  _161
REMARK   67  A    between atoms: _160  and  _163
REMARK   68  A    between atoms: _163  and  _164
REMARK   69  A    between atoms: _167  and  _169
REMARK   70  A    between atoms: _169  and  _170
REMARK   71  A    between atoms: _169  and  _172
REMARK   72  A    between atoms: _172  and  _173
REMARK   73  A    between atoms: _178  and  _180
REMARK   74  A    between atoms: _180  and  _181
REMARK   75  A    between atoms: _180  and  _183
REMARK   76  A    between atoms: _183  and  _184
REMARK   77  A    between atoms: _184  and  _185
REMARK   78  A    between atoms: _188  and  _190
REMARK   79  A    between atoms: _190  and  _191
REMARK   80  A    between atoms: _190  and  _193
REMARK   81  A    between atoms: _193  and  _194
REMARK   82  A    between atoms: _194  and  _195
REMARK   83  A    between atoms: _195  and  _196
REMARK   84  A    between atoms: _196  and  _197
REMARK   85  A    between atoms: _201  and  _203
REMARK   86  A    between atoms: _203  and  _204
REMARK   87  A    between atoms: _206  and  _208
REMARK   88  A    between atoms: _208  and  _209
REMARK   89  A    between atoms: _208  and  _211
REMARK   90  A    between atoms: _212  and  _213
REMARK   91  A    between atoms: _216  and  _218
REMARK   92  A    between atoms: _218  and  _219
REMARK   93  A    between atoms: _218  and  _221
REMARK   94  A    between atoms: _221  and  _222
REMARK   95  A    between atoms: _222  and  _223
REMARK   96  A    between atoms: _228  and  _230
REMARK   97  A    between atoms: _230  and  _231
REMARK   98  A    between atoms: _230  and  _233
REMARK   99  A    between atoms: _233  and  _234
REMARK  100  A    between atoms: _237  and  _239
REMARK  101  A    between atoms: _239  and  _240
REMARK  102  A    between atoms: _239  and  _242
REMARK  103  A    between atoms: _245  and  _247
REMARK  104  A    between atoms: _247  and  _248
REMARK  105  A    between atoms: _247  and  _250
REMARK  106  A    between atoms: _250  and  _251
REMARK  107  A    between atoms: _253  and  _255
REMARK  108  A    between atoms: _255  and  _256
REMARK  109  A    between atoms: _255  and  _258
REMARK  110  A    between atoms: _258  and  _259
REMARK  111  A    between atoms: _261  and  _263
REMARK  112  A    between atoms: _263  and  _264
REMARK  113  A    between atoms: _263  and  _266
REMARK  114  A    between atoms: _266  and  _267
REMARK  115  A    between atoms: _273  and  _275
REMARK  116  A    between atoms: _275  and  _276
REMARK  117  A    between atoms: _275  and  _278
REMARK  118  A    between atoms: _278  and  _279
REMARK  119  A    between atoms: _282  and  _284
REMARK  120  A    between atoms: _284  and  _285
REMARK  121  A    between atoms: _284  and  _287
REMARK  122  A    between atoms: _287  and  _288
REMARK  123  A    between atoms: _291  and  _293
REMARK  124  A    between atoms: _293  and  _294
REMARK  125  A    between atoms: _293  and  _296
REMARK  126  A    between atoms: _296  and  _297
REMARK  127  A    between atoms: _300  and  _302
REMARK  128  A    between atoms: _302  and  _303
REMARK  129  A    between atoms: _302  and  _305
REMARK  130  A    between atoms: _305  and  _306
REMARK  131  A    between atoms: _306  and  _307
REMARK  132  A    between atoms: _309  and  _311
REMARK  133  A    between atoms: _311  and  _312
REMARK  134  A    between atoms: _311  and  _314
REMARK  135  A    between atoms: _314  and  _315
REMARK  136  A    between atoms: _321  and  _323
REMARK  137  A    between atoms: _323  and  _324
REMARK  138  A    between atoms: _323  and  _326
REMARK  139  A    between atoms: _328  and  _330
REMARK  140  A    between atoms: _330  and  _331
REMARK  141  A    between atoms: _334  and  _336
REMARK  142  A    between atoms: _336  and  _337
REMARK  143  A    between atoms: _339  and  _341
REMARK  144  A    between atoms: _341  and  _342
REMARK  145  A    between atoms: _341  and  _344
REMARK  146  A    between atoms: _344  and  _345
REMARK  147  A    between atoms: _345  and  _346
REMARK  148  A    between atoms: _349  and  _351
REMARK  149  A    between atoms: _351  and  _352
REMARK  150  A    between atoms: _351  and  _354
REMARK  151  A    between atoms: _354  and  _355
REMARK  152  A    between atoms: _358  and  _360
REMARK  153  A    between atoms: _360  and  _361
REMARK  154  A    between atoms: _364  and  _366
REMARK  155  A    between atoms: _366  and  _367
REMARK  156  A    between atoms: _366  and  _369
REMARK  157  A    between atoms: _369  and  _370
REMARK  158  A    between atoms: _370  and  _493
REMARK  159  A    between atoms: _371  and  _373
REMARK  160  A    between atoms: _373  and  _374
REMARK  161  A    between atoms: _373  and  _376
REMARK  162  A    between atoms: _376  and  _377
REMARK  163  A    between atoms: _377  and  _378
REMARK  164  A    between atoms: _383  and  _385
REMARK  165  A    between atoms: _385  and  _386
REMARK  166  A    between atoms: _388  and  _390
REMARK  167  A    between atoms: _390  and  _391
REMARK  168  A    between atoms: _390  and  _393
REMARK  169  A    between atoms: _393  and  _394
REMARK  170  A    between atoms: _397  and  _399
REMARK  171  A    between atoms: _399  and  _400
REMARK  172  A    between atoms: _399  and  _402
REMARK  173  A    between atoms: _402  and  _403
REMARK  174  A    between atoms: _405  and  _407
REMARK  175  A    between atoms: _407  and  _408
REMARK  176  A    between atoms: _410  and  _412
REMARK  177  A    between atoms: _412  and  _413
REMARK  178  A    between atoms: _415  and  _417
REMARK  179  A    between atoms: _417  and  _418
REMARK  180  A    between atoms: _417  and  _420
REMARK  181  A    between atoms: _420  and  _421
REMARK  182  A    between atoms: _426  and  _428
REMARK  183  A    between atoms: _428  and  _429
REMARK  184  A    between atoms: _428  and  _431
REMARK  185  A    between atoms: _431  and  _432
REMARK  186  A    between atoms: _435  and  _437
REMARK  187  A    between atoms: _437  and  _438
REMARK  188  A    between atoms: _437  and  _440
REMARK  189  A    between atoms: _443  and  _445
REMARK  190  A    between atoms: _445  and  _446
REMARK  191  A    between atoms: _445  and  _448
REMARK  192  A    between atoms: _448  and  _449
REMARK  193  A    between atoms: _451  and  _453
REMARK  194  A    between atoms: _453  and  _454
REMARK  195  A    between atoms: _453  and  _456
REMARK  196  A    between atoms: _456  and  _457
REMARK  197  A    between atoms: _467  and  _469
REMARK  198  A    between atoms: _469  and  _470
REMARK  199  A    between atoms: _472  and  _474
REMARK  200  A    between atoms: _474  and  _475
REMARK  201  A    between atoms: _474  and  _477
REMARK  202  A    between atoms: _477  and  _478
REMARK  203  A    between atoms: _478  and  _479
REMARK  204  A    between atoms: _482  and  _484
REMARK  205  A    between atoms: _484  and  _485
REMARK  206  A    between atoms: _487  and  _489
REMARK  207  A    between atoms: _489  and  _490
REMARK  208  A    between atoms: _489  and  _492
REMARK  209  A    between atoms: _492  and  _493
REMARK  210  A    between atoms: _494  and  _496
REMARK  211  A    between atoms: _496  and  _497
REMARK  212  A    between atoms: _500  and  _502
REMARK  213  A    between atoms: _502  and  _503
REMARK  214  A    between atoms: _502  and  _505
REMARK  215  A    between atoms: _505  and  _506
REMARK  216  A    between atoms: _506  and  _507
REMARK  217  A    between atoms: _507  and  _508
REMARK  218  A    between atoms: _517  and  _519
REMARK  219  A    between atoms: _519  and  _520
REMARK  220  A    between atoms: _519  and  _522
REMARK  221  A    between atoms: _522  and  _523
REMARK  222  A    between atoms: _523  and  _524
REMARK  223  A    between atoms: _524  and  _525
REMARK  224  A    between atoms: _525  and  _526
REMARK  225  A    between atoms: _530  and  _532
REMARK  226  A    between atoms: _532  and  _533
REMARK  227  A    between atoms: _532  and  _535
REMARK  228  A    between atoms: _535  and  _536
REMARK  229  A    between atoms: _541  and  _542
REMARK  230  A    between atoms: _544  and  _546
REMARK  231  A    between atoms: _546  and  _547
REMARK  232  A    between atoms: _549  and  _551
REMARK  233  A    between atoms: _551  and  _552
REMARK  234  A    between atoms: _551  and  _554
REMARK  235  A    between atoms: _554  and  _555
REMARK  236  A    between atoms: _558  and  _560
REMARK  237  A    between atoms: _560  and  _561
REMARK  238  A    between atoms: _560  and  _563
REMARK  239  A    between atoms: _563  and  _564
REMARK  240  A    between atoms: _569  and  _570
REMARK  241  A    between atoms: _572  and  _574
REMARK  242  A    between atoms: _574  and  _575
REMARK  243  A    between atoms: _574  and  _577
REMARK  244  A    between atoms: _577  and  _578
REMARK                            x       y       z     vdW  Elec       q    Type
REMARK                         _______ _______ _______ _____ _____    ______ ____
ROOT
ATOM      1  O   HOH     1      16.362  65.657  14.112  0.00  0.00    +0.000 OA
ENDROOT
TORSDOF 0
REMARK  Name = ../refined-set-2016/2xbv/2xbv_pocket.pdb
REMARK  244 active torsions:
REMARK  status: ('A' for Active; 'I' for Inactive)
REMARK    1  A    between atoms: _1  and  _5
REMARK    2  A    between atoms: _5  and  _6
REMARK    3  A    between atoms: _5  and  _8
REMARK    4  A    between atoms: _8  and  _9
REMARK    5  A    between atoms: _12  and  _14
REMARK    6  A    between atoms: _14  and  _15
REMARK    7  A    between atoms: _14  and  _17
REMARK    8  A    between atoms: _20  and  _22
REMARK    9  A    between atoms: _22  and  _23
REMARK   10  A    between atoms: _22  and  _25
REMARK   11  A    between atoms: _25  and  _26
REMARK   12  A    between atoms: _31  and  _33
REMARK   13  A    between atoms: _33  and  _34
REMARK   14  A    between atoms: _33  and  _36
REMARK   15  A    between atoms: _36  and  _37
REMARK   16  A    between atoms: _37  and  _38
REMARK   17  A    between atoms: _43  and  _45
REMARK   18  A    between atoms: _45  and  _46
REMARK   19  A    between atoms: _45  and  _48
REMARK   20  A    between atoms: _48  and  _49
REMARK   21  A    between atoms: _55  and  _57
REMARK   22  A    between atoms: _57  and  _58
REMARK   23  A    between atoms: _57  and  _60
REMARK   24  A    between atoms: _60  and  _61
REMARK   25  A    between atoms: _64  and  _66
REMARK   26  A    between atoms: _66  and  _67
REMARK   27  A    between atoms: _66  and  _69
REMARK   28  A    between atoms: _69  and  _70
REMARK   29  A    between atoms: _70  and  _71
REMARK   30  A    between atoms: _71  and  _72
REMARK   31  A    between atoms: _72  and  _73
REMARK   32  A    between atoms: _77  and  _79
REMARK   33  A    between atoms: _79  and  _80
REMARK   34  A    between atoms: _79  and  _82
REMARK   35  A    between atoms: _82  and  _83
REMARK   36  A    between atoms: _83  and  _84
REMARK   37  A    between atoms: _87  and  _89
REMARK   38  A    between atoms: _89  and  _90
REMARK   39  A    between atoms: _89  and  _92
REMARK   40  A    between atoms: _92  and  _93
REMARK   41  A    between atoms: _96  and  _98
REMARK   42  A    between atoms: _98  and  _99
REMARK   43  A    between atoms: _98  and  _101
REMARK   44  A    between atoms: _101  and  _102
REMARK   45  A    between atoms: _107  and  _108
REMARK   46  A    between atoms: _110  and  _112
REMARK   47  A    between atoms: _112  and  _113
REMARK   48  A    between atoms: _112  and  _115
REMARK   49  A    between atoms: _115  and  _116
REMARK   50  A    between atoms: _119  and  _121
REMARK   51  A    between atoms: _121  and  _122
REMARK   52  A    between atoms: _121  and  _124
REMARK   53  A    between atoms: _124  and  _125
REMARK   54  A    between atoms: _128  and  _130
REMARK   55  A    between atoms: _130  and  _131
REMARK   56  A    between atoms: _130  and  _133
REMARK   57  A    between atoms: _136  and  _138
REMARK   58  A    between atoms: _138  and  _139
REMARK   59  A    between atoms: _141  and  _143
REMARK   60  A    between atoms: _143  and  _144
REMARK   61  A    between atoms: _143  and  _146
REMARK   62  A    between atoms: _146  and  _147
REMARK   63  A    between atoms: _147  and  _148
REMARK   64  A    between atoms: _148  and  _149
REMARK   65  A    between atoms: _158  and  _160
REMARK   66  A    between atoms: _160  and  _161
REMARK   67  A    between atoms: _160  and  _163
REMARK   68  A    between atoms: _163  and  _164
REMARK   69  A    between atoms: _167  and  _169
REMARK   70  A    between atoms: _169  and  _170
REMARK   71  A    between atoms: _169  and  _172
REMARK   72  A    between atoms: _172  and  _173
REMARK   73  A    between atoms: _178  and  _180
REMARK   74  A    between atoms: _180  and  _181
REMARK   75  A    between atoms: _180  and  _183
REMARK   76  A    between atoms: _183  and  _184
REMARK   77  A    between atoms: _184  and  _185
REMARK   78  A    between atoms: _188  and  _190
REMARK   79  A    between atoms: _190  and  _191
REMARK   80  A    between atoms: _190  and  _193
REMARK   81  A    between atoms: _193  and  _194
REMARK   82  A    between atoms: _194  and  _195
REMARK   83  A    between atoms: _195  and  _196
REMARK   84  A    between atoms: _196  and  _197
REMARK   85  A    between atoms: _201  and  _203
REMARK   86  A    between atoms: _203  and  _204
REMARK   87  A    between atoms: _206  and  _208
REMARK   88  A    between atoms: _208  and  _209
REMARK   89  A    between atoms: _208  and  _211
REMARK   90  A    between atoms: _212  and  _213
REMARK   91  A    between atoms: _216  and  _218
REMARK   92  A    between atoms: _218  and  _219
REMARK   93  A    between atoms: _218  and  _221
REMARK   94  A    between atoms: _221  and  _222
REMARK   95  A    between atoms: _222  and  _223
REMARK   96  A    between atoms: _228  and  _230
REMARK   97  A    between atoms: _230  and  _231
REMARK   98  A    between atoms: _230  and  _233
REMARK   99  A    between atoms: _233  and  _234
REMARK  100  A    between atoms: _237  and  _239
REMARK  101  A    between atoms: _239  and  _240
REMARK  102  A    between atoms: _239  and  _242
REMARK  103  A    between atoms: _245  and  _247
REMARK  104  A    between atoms: _247  and  _248
REMARK  105  A    between atoms: _247  and  _250
REMARK  106  A    between atoms: _250  and  _251
REMARK  107  A    between atoms: _253  and  _255
REMARK  108  A    between atoms: _255  and  _256
REMARK  109  A    between atoms: _255  and  _258
REMARK  110  A    between atoms: _258  and  _259
REMARK  111  A    between atoms: _261  and  _263
REMARK  112  A    between atoms: _263  and  _264
REMARK  113  A    between atoms: _263  and  _266
REMARK  114  A    between atoms: _266  and  _267
REMARK  115  A    between atoms: _273  and  _275
REMARK  116  A    between atoms: _275  and  _276
REMARK  117  A    between atoms: _275  and  _278
REMARK  118  A    between atoms: _278  and  _279
REMARK  119  A    between atoms: _282  and  _284
REMARK  120  A    between atoms: _284  and  _285
REMARK  121  A    between atoms: _284  and  _287
REMARK  122  A    between atoms: _287  and  _288
REMARK  123  A    between atoms: _291  and  _293
REMARK  124  A    between atoms: _293  and  _294
REMARK  125  A    between atoms: _293  and  _296
REMARK  126  A    between atoms: _296  and  _297
REMARK  127  A    between atoms: _300  and  _302
REMARK  128  A    between atoms: _302  and  _303
REMARK  129  A    between atoms: _302  and  _305
REMARK  130  A    between atoms: _305  and  _306
REMARK  131  A    between atoms: _306  and  _307
REMARK  132  A    between atoms: _309  and  _311
REMARK  133  A    between atoms: _311  and  _312
REMARK  134  A    between atoms: _311  and  _314
REMARK  135  A    between atoms: _314  and  _315
REMARK  136  A    between atoms: _321  and  _323
REMARK  137  A    between atoms: _323  and  _324
REMARK  138  A    between atoms: _323  and  _326
REMARK  139  A    between atoms: _328  and  _330
REMARK  140  A    between atoms: _330  and  _331
REMARK  141  A    between atoms: _334  and  _336
REMARK  142  A    between atoms: _336  and  _337
REMARK  143  A    between atoms: _339  and  _341
REMARK  144  A    between atoms: _341  and  _342
REMARK  145  A    between atoms: _341  and  _344
REMARK  146  A    between atoms: _344  and  _345
REMARK  147  A    between atoms: _345  and  _346
REMARK  148  A    between atoms: _349  and  _351
REMARK  149  A    between atoms: _351  and  _352
REMARK  150  A    between atoms: _351  and  _354
REMARK  151  A    between atoms: _354  and  _355
REMARK  152  A    between atoms: _358  and  _360
REMARK  153  A    between atoms: _360  and  _361
REMARK  154  A    between atoms: _364  and  _366
REMARK  155  A    between atoms: _366  and  _367
REMARK  156  A    between atoms: _366  and  _369
REMARK  157  A    between atoms: _369  and  _370
REMARK  158  A    between atoms: _370  and  _493
REMARK  159  A    between atoms: _371  and  _373
REMARK  160  A    between atoms: _373  and  _374
REMARK  161  A    between atoms: _373  and  _376
REMARK  162  A    between atoms: _376  and  _377
REMARK  163  A    between atoms: _377  and  _378
REMARK  164  A    between atoms: _383  and  _385
REMARK  165  A    between atoms: _385  and  _386
REMARK  166  A    between atoms: _388  and  _390
REMARK  167  A    between atoms: _390  and  _391
REMARK  168  A    between atoms: _390  and  _393
REMARK  169  A    between atoms: _393  and  _394
REMARK  170  A    between atoms: _397  and  _399
REMARK  171  A    between atoms: _399  and  _400
REMARK  172  A    between atoms: _399  and  _402
REMARK  173  A    between atoms: _402  and  _403
REMARK  174  A    between atoms: _405  and  _407
REMARK  175  A    between atoms: _407  and  _408
REMARK  176  A    between atoms: _410  and  _412
REMARK  177  A    between atoms: _412  and  _413
REMARK  178  A    between atoms: _415  and  _417
REMARK  179  A    between atoms: _417  and  _418
REMARK  180  A    between atoms: _417  and  _420
REMARK  181  A    between atoms: _420  and  _421
REMARK  182  A    between atoms: _426  and  _428
REMARK  183  A    between atoms: _428  and  _429
REMARK  184  A    between atoms: _428  and  _431
REMARK  185  A    between atoms: _431  and  _432
REMARK  186  A    between atoms: _435  and  _437
REMARK  187  A    between atoms: _437  and  _438
REMARK  188  A    between atoms: _437  and  _440
REMARK  189  A    between atoms: _443  and  _445
REMARK  190  A    between atoms: _445  and  _446
REMARK  191  A    between atoms: _445  and  _448
REMARK  192  A    between atoms: _448  and  _449
REMARK  193  A    between atoms: _451  and  _453
REMARK  194  A    between atoms: _453  and  _454
REMARK  195  A    between atoms: _453  and  _456
REMARK  196  A    between atoms: _456  and  _457
REMARK  197  A    between atoms: _467  and  _469
REMARK  198  A    between atoms: _469  and  _470
REMARK  199  A    between atoms: _472  and  _474
REMARK  200  A    between atoms: _474  and  _475
REMARK  201  A    between atoms: _474  and  _477
REMARK  202  A    between atoms: _477  and  _478
REMARK  203  A    between atoms: _478  and  _479
REMARK  204  A    between atoms: _482  and  _484
REMARK  205  A    between atoms: _484  and  _485
REMARK  206  A    between atoms: _487  and  _489
REMARK  207  A    between atoms: _489  and  _490
REMARK  208  A    between atoms: _489  and  _492
REMARK  209  A    between atoms: _492  and  _493
REMARK  210  A    between atoms: _494  and  _496
REMARK  211  A    between atoms: _496  and  _497
REMARK  212  A    between atoms: _500  and  _502
REMARK  213  A    between atoms: _502  and  _503
REMARK  214  A    between atoms: _502  and  _505
REMARK  215  A    between atoms: _505  and  _506
REMARK  216  A    between atoms: _506  and  _507
REMARK  217  A    between atoms: _507  and  _508
REMARK  218  A    between atoms: _517  and  _519
REMARK  219  A    between atoms: _519  and  _520
REMARK  220  A    between atoms: _519  and  _522
REMARK  221  A    between atoms: _522  and  _523
REMARK  222  A    between atoms: _523  and  _524
REMARK  223  A    between atoms: _524  and  _525
REMARK  224  A    between atoms: _525  and  _526
REMARK  225  A    between atoms: _530  and  _532
REMARK  226  A    between atoms: _532  and  _533
REMARK  227  A    between atoms: _532  and  _535
REMARK  228  A    between atoms: _535  and  _536
REMARK  229  A    between atoms: _541  and  _542
REMARK  230  A    between atoms: _544  and  _546
REMARK  231  A    between atoms: _546  and  _547
REMARK  232  A    between atoms: _549  and  _551
REMARK  233  A    between atoms: _551  and  _552
REMARK  234  A    between atoms: _551  and  _554
REMARK  235  A    between atoms: _554  and  _555
REMARK  236  A    between atoms: _558  and  _560
REMARK  237  A    between atoms: _560  and  _561
REMARK  238  A    between atoms: _560  and  _563
REMARK  239  A    between atoms: _563  and  _564
REMARK  240  A    between atoms: _569  and  _570
REMARK  241  A    between atoms: _572  and  _574
REMARK  242  A    between atoms: _574  and  _575
REMARK  243  A    between atoms: _574  and  _577
REMARK  244  A    between atoms: _577  and  _578
REMARK                            x       y       z     vdW  Elec       q    Type
REMARK                         _______ _______ _______ _____ _____    ______ ____
ROOT
ATOM      1  O   HOH     1      12.319  64.721   9.920  0.00  0.00    +0.000 OA
ENDROOT
TORSDOF 0
REMARK  Name = ../refined-set-2016/2xbv/2xbv_pocket.pdb
REMARK  244 active torsions:
REMARK  status: ('A' for Active; 'I' for Inactive)
REMARK    1  A    between atoms: _1  and  _5
REMARK    2  A    between atoms: _5  and  _6
REMARK    3  A    between atoms: _5  and  _8
REMARK    4  A    between atoms: _8  and  _9
REMARK    5  A    between atoms: _12  and  _14
REMARK    6  A    between atoms: _14  and  _15
REMARK    7  A    between atoms: _14  and  _17
REMARK    8  A    between atoms: _20  and  _22
REMARK    9  A    between atoms: _22  and  _23
REMARK   10  A    between atoms: _22  and  _25
REMARK   11  A    between atoms: _25  and  _26
REMARK   12  A    between atoms: _31  and  _33
REMARK   13  A    between atoms: _33  and  _34
REMARK   14  A    between atoms: _33  and  _36
REMARK   15  A    between atoms: _36  and  _37
REMARK   16  A    between atoms: _37  and  _38
REMARK   17  A    between atoms: _43  and  _45
REMARK   18  A    between atoms: _45  and  _46
REMARK   19  A    between atoms: _45  and  _48
REMARK   20  A    between atoms: _48  and  _49
REMARK   21  A    between atoms: _55  and  _57
REMARK   22  A    between atoms: _57  and  _58
REMARK   23  A    between atoms: _57  and  _60
REMARK   24  A    between atoms: _60  and  _61
REMARK   25  A    between atoms: _64  and  _66
REMARK   26  A    between atoms: _66  and  _67
REMARK   27  A    between atoms: _66  and  _69
REMARK   28  A    between atoms: _69  and  _70
REMARK   29  A    between atoms: _70  and  _71
REMARK   30  A    between atoms: _71  and  _72
REMARK   31  A    between atoms: _72  and  _73
REMARK   32  A    between atoms: _77  and  _79
REMARK   33  A    between atoms: _79  and  _80
REMARK   34  A    between atoms: _79  and  _82
REMARK   35  A    between atoms: _82  and  _83
REMARK   36  A    between atoms: _83  and  _84
REMARK   37  A    between atoms: _87  and  _89
REMARK   38  A    between atoms: _89  and  _90
REMARK   39  A    between atoms: _89  and  _92
REMARK   40  A    between atoms: _92  and  _93
REMARK   41  A    between atoms: _96  and  _98
REMARK   42  A    between atoms: _98  and  _99
REMARK   43  A    between atoms: _98  and  _101
REMARK   44  A    between atoms: _101  and  _102
REMARK   45  A    between atoms: _107  and  _108
REMARK   46  A    between atoms: _110  and  _112
REMARK   47  A    between atoms: _112  and  _113
REMARK   48  A    between atoms: _112  and  _115
REMARK   49  A    between atoms: _115  and  _116
REMARK   50  A    between atoms: _119  and  _121
REMARK   51  A    between atoms: _121  and  _122
REMARK   52  A    between atoms: _121  and  _124
REMARK   53  A    between atoms: _124  and  _125
REMARK   54  A    between atoms: _128  and  _130
REMARK   55  A    between atoms: _130  and  _131
REMARK   56  A    between atoms: _130  and  _133
REMARK   57  A    between atoms: _136  and  _138
REMARK   58  A    between atoms: _138  and  _139
REMARK   59  A    between atoms: _141  and  _143
REMARK   60  A    between atoms: _143  and  _144
REMARK   61  A    between atoms: _143  and  _146
REMARK   62  A    between atoms: _146  and  _147
REMARK   63  A    between atoms: _147  and  _148
REMARK   64  A    between atoms: _148  and  _149
REMARK   65  A    between atoms: _158  and  _160
REMARK   66  A    between atoms: _160  and  _161
REMARK   67  A    between atoms: _160  and  _163
REMARK   68  A    between atoms: _163  and  _164
REMARK   69  A    between atoms: _167  and  _169
REMARK   70  A    between atoms: _169  and  _170
REMARK   71  A    between atoms: _169  and  _172
REMARK   72  A    between atoms: _172  and  _173
REMARK   73  A    between atoms: _178  and  _180
REMARK   74  A    between atoms: _180  and  _181
REMARK   75  A    between atoms: _180  and  _183
REMARK   76  A    between atoms: _183  and  _184
REMARK   77  A    between atoms: _184  and  _185
REMARK   78  A    between atoms: _188  and  _190
REMARK   79  A    between atoms: _190  and  _191
REMARK   80  A    between atoms: _190  and  _193
REMARK   81  A    between atoms: _193  and  _194
REMARK   82  A    between atoms: _194  and  _195
REMARK   83  A    between atoms: _195  and  _196
REMARK   84  A    between atoms: _196  and  _197
REMARK   85  A    between atoms: _201  and  _203
REMARK   86  A    between atoms: _203  and  _204
REMARK   87  A    between atoms: _206  and  _208
REMARK   88  A    between atoms: _208  and  _209
REMARK   89  A    between atoms: _208  and  _211
REMARK   90  A    between atoms: _212  and  _213
REMARK   91  A    between atoms: _216  and  _218
REMARK   92  A    between atoms: _218  and  _219
REMARK   93  A    between atoms: _218  and  _221
REMARK   94  A    between atoms: _221  and  _222
REMARK   95  A    between atoms: _222  and  _223
REMARK   96  A    between atoms: _228  and  _230
REMARK   97  A    between atoms: _230  and  _231
REMARK   98  A    between atoms: _230  and  _233
REMARK   99  A    between atoms: _233  and  _234
REMARK  100  A    between atoms: _237  and  _239
REMARK  101  A    between atoms: _239  and  _240
REMARK  102  A    between atoms: _239  and  _242
REMARK  103  A    between atoms: _245  and  _247
REMARK  104  A    between atoms: _247  and  _248
REMARK  105  A    between atoms: _247  and  _250
REMARK  106  A    between atoms: _250  and  _251
REMARK  107  A    between atoms: _253  and  _255
REMARK  108  A    between atoms: _255  and  _256
REMARK  109  A    between atoms: _255  and  _258
REMARK  110  A    between atoms: _258  and  _259
REMARK  111  A    between atoms: _261  and  _263
REMARK  112  A    between atoms: _263  and  _264
REMARK  113  A    between atoms: _263  and  _266
REMARK  114  A    between atoms: _266  and  _267
REMARK  115  A    between atoms: _273  and  _275
REMARK  116  A    between atoms: _275  and  _276
REMARK  117  A    between atoms: _275  and  _278
REMARK  118  A    between atoms: _278  and  _279
REMARK  119  A    between atoms: _282  and  _284
REMARK  120  A    between atoms: _284  and  _285
REMARK  121  A    between atoms: _284  and  _287
REMARK  122  A    between atoms: _287  and  _288
REMARK  123  A    between atoms: _291  and  _293
REMARK  124  A    between atoms: _293  and  _294
REMARK  125  A    between atoms: _293  and  _296
REMARK  126  A    between atoms: _296  and  _297
REMARK  127  A    between atoms: _300  and  _302
REMARK  128  A    between atoms: _302  and  _303
REMARK  129  A    between atoms: _302  and  _305
REMARK  130  A    between atoms: _305  and  _306
REMARK  131  A    between atoms: _306  and  _307
REMARK  132  A    between atoms: _309  and  _311
REMARK  133  A    between atoms: _311  and  _312
REMARK  134  A    between atoms: _311  and  _314
REMARK  135  A    between atoms: _314  and  _315
REMARK  136  A    between atoms: _321  and  _323
REMARK  137  A    between atoms: _323  and  _324
REMARK  138  A    between atoms: _323  and  _326
REMARK  139  A    between atoms: _328  and  _330
REMARK  140  A    between atoms: _330  and  _331
REMARK  141  A    between atoms: _334  and  _336
REMARK  142  A    between atoms: _336  and  _337
REMARK  143  A    between atoms: _339  and  _341
REMARK  144  A    between atoms: _341  and  _342
REMARK  145  A    between atoms: _341  and  _344
REMARK  146  A    between atoms: _344  and  _345
REMARK  147  A    between atoms: _345  and  _346
REMARK  148  A    between atoms: _349  and  _351
REMARK  149  A    between atoms: _351  and  _352
REMARK  150  A    between atoms: _351  and  _354
REMARK  151  A    between atoms: _354  and  _355
REMARK  152  A    between atoms: _358  and  _360
REMARK  153  A    between atoms: _360  and  _361
REMARK  154  A    between atoms: _364  and  _366
REMARK  155  A    between atoms: _366  and  _367
REMARK  156  A    between atoms: _366  and  _369
REMARK  157  A    between atoms: _369  and  _370
REMARK  158  A    between atoms: _370  and  _493
REMARK  159  A    between atoms: _371  and  _373
REMARK  160  A    between atoms: _373  and  _374
REMARK  161  A    between atoms: _373  and  _376
REMARK  162  A    between atoms: _376  and  _377
REMARK  163  A    between atoms: _377  and  _378
REMARK  164  A    between atoms: _383  and  _385
REMARK  165  A    between atoms: _385  and  _386
REMARK  166  A    between atoms: _388  and  _390
REMARK  167  A    between atoms: _390  and  _391
REMARK  168  A    between atoms: _390  and  _393
REMARK  169  A    between atoms: _393  and  _394
REMARK  170  A    between atoms: _397  and  _399
REMARK  171  A    between atoms: _399  and  _400
REMARK  172  A    between atoms: _399  and  _402
REMARK  173  A    between atoms: _402  and  _403
REMARK  174  A    between atoms: _405  and  _407
REMARK  175  A    between atoms: _407  and  _408
REMARK  176  A    between atoms: _410  and  _412
REMARK  177  A    between atoms: _412  and  _413
REMARK  178  A    between atoms: _415  and  _417
REMARK  179  A    between atoms: _417  and  _418
REMARK  180  A    between atoms: _417  and  _420
REMARK  181  A    between atoms: _420  and  _421
REMARK  182  A    between atoms: _426  and  _428
REMARK  183  A    between atoms: _428  and  _429
REMARK  184  A    between atoms: _428  and  _431
REMARK  185  A    between atoms: _431  and  _432
REMARK  186  A    between atoms: _435  and  _437
REMARK  187  A    between atoms: _437  and  _438
REMARK  188  A    between atoms: _437  and  _440
REMARK  189  A    between atoms: _443  and  _445
REMARK  190  A    between atoms: _445  and  _446
REMARK  191  A    between atoms: _445  and  _448
REMARK  192  A    between atoms: _448  and  _449
REMARK  193  A    between atoms: _451  and  _453
REMARK  194  A    between atoms: _453  and  _454
REMARK  195  A    between atoms: _453  and  _456
REMARK  196  A    between atoms: _456  and  _457
REMARK  197  A    between atoms: _467  and  _469
REMARK  198  A    between atoms: _469  and  _470
REMARK  199  A    between atoms: _472  and  _474
REMARK  200  A    between atoms: _474  and  _475
REMARK  201  A    between atoms: _474  and  _477
REMARK  202  A    between atoms: _477  and  _478
REMARK  203  A    between atoms: _478  and  _479
REMARK  204  A    between atoms: _482  and  _484
REMARK  205  A    between atoms: _484  and  _485
REMARK  206  A    between atoms: _487  and  _489
REMARK  207  A    between atoms: _489  and  _490
REMARK  208  A    between atoms: _489  and  _492
REMARK  209  A    between atoms: _492  and  _493
REMARK  210  A    between atoms: _494  and  _496
REMARK  211  A    between atoms: _496  and  _497
REMARK  212  A    between atoms: _500  and  _502
REMARK  213  A    between atoms: _502  and  _503
REMARK  214  A    between atoms: _502  and  _505
REMARK  215  A    between atoms: _505  and  _506
REMARK  216  A    between atoms: _506  and  _507
REMARK  217  A    between atoms: _507  and  _508
REMARK  218  A    between atoms: _517  and  _519
REMARK  219  A    between atoms: _519  and  _520
REMARK  220  A    between atoms: _519  and  _522
REMARK  221  A    between atoms: _522  and  _523
REMARK  222  A    between atoms: _523  and  _524
REMARK  223  A    between atoms: _524  and  _525
REMARK  224  A    between atoms: _525  and  _526
REMARK  225  A    between atoms: _530  and  _532
REMARK  226  A    between atoms: _532  and  _533
REMARK  227  A    between atoms: _532  and  _535
REMARK  228  A    between atoms: _535  and  _536
REMARK  229  A    between atoms: _541  and  _542
REMARK  230  A    between atoms: _544  and  _546
REMARK  231  A    between atoms: _546  and  _547
REMARK  232  A    between atoms: _549  and  _551
REMARK  233  A    between atoms: _551  and  _552
REMARK  234  A    between atoms: _551  and  _554
REMARK  235  A    between atoms: _554  and  _555
REMARK  236  A    between atoms: _558  and  _560
REMARK  237  A    between atoms: _560  and  _561
REMARK  238  A    between atoms: _560  and  _563
REMARK  239  A    between atoms: _563  and  _564
REMARK  240  A    between atoms: _569  and  _570
REMARK  241  A    between atoms: _572  and  _574
REMARK  242  A    between atoms: _574  and  _575
REMARK  243  A    between atoms: _574  and  _577
REMARK  244  A    between atoms: _577  and  _578
REMARK                            x       y       z     vdW  Elec       q    Type
REMARK                         _______ _______ _______ _____ _____    ______ ____
ROOT
ATOM      1  O   HOH     1      11.907  65.122  -0.167  0.00  0.00    +0.000 OA
ENDROOT
TORSDOF 0
REMARK  Name = ../refined-set-2016/2xbv/2xbv_pocket.pdb
REMARK  244 active torsions:
REMARK  status: ('A' for Active; 'I' for Inactive)
REMARK    1  A    between atoms: _1  and  _5
REMARK    2  A    between atoms: _5  and  _6
REMARK    3  A    between atoms: _5  and  _8
REMARK    4  A    between atoms: _8  and  _9
REMARK    5  A    between atoms: _12  and  _14
REMARK    6  A    between atoms: _14  and  _15
REMARK    7  A    between atoms: _14  and  _17
REMARK    8  A    between atoms: _20  and  _22
REMARK    9  A    between atoms: _22  and  _23
REMARK   10  A    between atoms: _22  and  _25
REMARK   11  A    between atoms: _25  and  _26
REMARK   12  A    between atoms: _31  and  _33
REMARK   13  A    between atoms: _33  and  _34
REMARK   14  A    between atoms: _33  and  _36
REMARK   15  A    between atoms: _36  and  _37
REMARK   16  A    between atoms: _37  and  _38
REMARK   17  A    between atoms: _43  and  _45
REMARK   18  A    between atoms: _45  and  _46
REMARK   19  A    between atoms: _45  and  _48
REMARK   20  A    between atoms: _48  and  _49
REMARK   21  A    between atoms: _55  and  _57
REMARK   22  A    between atoms: _57  and  _58
REMARK   23  A    between atoms: _57  and  _60
REMARK   24  A    between atoms: _60  and  _61
REMARK   25  A    between atoms: _64  and  _66
REMARK   26  A    between atoms: _66  and  _67
REMARK   27  A    between atoms: _66  and  _69
REMARK   28  A    between atoms: _69  and  _70
REMARK   29  A    between atoms: _70  and  _71
REMARK   30  A    between atoms: _71  and  _72
REMARK   31  A    between atoms: _72  and  _73
REMARK   32  A    between atoms: _77  and  _79
REMARK   33  A    between atoms: _79  and  _80
REMARK   34  A    between atoms: _79  and  _82
REMARK   35  A    between atoms: _82  and  _83
REMARK   36  A    between atoms: _83  and  _84
REMARK   37  A    between atoms: _87  and  _89
REMARK   38  A    between atoms: _89  and  _90
REMARK   39  A    between atoms: _89  and  _92
REMARK   40  A    between atoms: _92  and  _93
REMARK   41  A    between atoms: _96  and  _98
REMARK   42  A    between atoms: _98  and  _99
REMARK   43  A    between atoms: _98  and  _101
REMARK   44  A    between atoms: _101  and  _102
REMARK   45  A    between atoms: _107  and  _108
REMARK   46  A    between atoms: _110  and  _112
REMARK   47  A    between atoms: _112  and  _113
REMARK   48  A    between atoms: _112  and  _115
REMARK   49  A    between atoms: _115  and  _116
REMARK   50  A    between atoms: _119  and  _121
REMARK   51  A    between atoms: _121  and  _122
REMARK   52  A    between atoms: _121  and  _124
REMARK   53  A    between atoms: _124  and  _125
REMARK   54  A    between atoms: _128  and  _130
REMARK   55  A    between atoms: _130  and  _131
REMARK   56  A    between atoms: _130  and  _133
REMARK   57  A    between atoms: _136  and  _138
REMARK   58  A    between atoms: _138  and  _139
REMARK   59  A    between atoms: _141  and  _143
REMARK   60  A    between atoms: _143  and  _144
REMARK   61  A    between atoms: _143  and  _146
REMARK   62  A    between atoms: _146  and  _147
REMARK   63  A    between atoms: _147  and  _148
REMARK   64  A    between atoms: _148  and  _149
REMARK   65  A    between atoms: _158  and  _160
REMARK   66  A    between atoms: _160  and  _161
REMARK   67  A    between atoms: _160  and  _163
REMARK   68  A    between atoms: _163  and  _164
REMARK   69  A    between atoms: _167  and  _169
REMARK   70  A    between atoms: _169  and  _170
REMARK   71  A    between atoms: _169  and  _172
REMARK   72  A    between atoms: _172  and  _173
REMARK   73  A    between atoms: _178  and  _180
REMARK   74  A    between atoms: _180  and  _181
REMARK   75  A    between atoms: _180  and  _183
REMARK   76  A    between atoms: _183  and  _184
REMARK   77  A    between atoms: _184  and  _185
REMARK   78  A    between atoms: _188  and  _190
REMARK   79  A    between atoms: _190  and  _191
REMARK   80  A    between atoms: _190  and  _193
REMARK   81  A    between atoms: _193  and  _194
REMARK   82  A    between atoms: _194  and  _195
REMARK   83  A    between atoms: _195  and  _196
REMARK   84  A    between atoms: _196  and  _197
REMARK   85  A    between atoms: _201  and  _203
REMARK   86  A    between atoms: _203  and  _204
REMARK   87  A    between atoms: _206  and  _208
REMARK   88  A    between atoms: _208  and  _209
REMARK   89  A    between atoms: _208  and  _211
REMARK   90  A    between atoms: _212  and  _213
REMARK   91  A    between atoms: _216  and  _218
REMARK   92  A    between atoms: _218  and  _219
REMARK   93  A    between atoms: _218  and  _221
REMARK   94  A    between atoms: _221  and  _222
REMARK   95  A    between atoms: _222  and  _223
REMARK   96  A    between atoms: _228  and  _230
REMARK   97  A    between atoms: _230  and  _231
REMARK   98  A    between atoms: _230  and  _233
REMARK   99  A    between atoms: _233  and  _234
REMARK  100  A    between atoms: _237  and  _239
REMARK  101  A    between atoms: _239  and  _240
REMARK  102  A    between atoms: _239  and  _242
REMARK  103  A    between atoms: _245  and  _247
REMARK  104  A    between atoms: _247  and  _248
REMARK  105  A    between atoms: _247  and  _250
REMARK  106  A    between atoms: _250  and  _251
REMARK  107  A    between atoms: _253  and  _255
REMARK  108  A    between atoms: _255  and  _256
REMARK  109  A    between atoms: _255  and  _258
REMARK  110  A    between atoms: _258  and  _259
REMARK  111  A    between atoms: _261  and  _263
REMARK  112  A    between atoms: _263  and  _264
REMARK  113  A    between atoms: _263  and  _266
REMARK  114  A    between atoms: _266  and  _267
REMARK  115  A    between atoms: _273  and  _275
REMARK  116  A    between atoms: _275  and  _276
REMARK  117  A    between atoms: _275  and  _278
REMARK  118  A    between atoms: _278  and  _279
REMARK  119  A    between atoms: _282  and  _284
REMARK  120  A    between atoms: _284  and  _285
REMARK  121  A    between atoms: _284  and  _287
REMARK  122  A    between atoms: _287  and  _288
REMARK  123  A    between atoms: _291  and  _293
REMARK  124  A    between atoms: _293  and  _294
REMARK  125  A    between atoms: _293  and  _296
REMARK  126  A    between atoms: _296  and  _297
REMARK  127  A    between atoms: _300  and  _302
REMARK  128  A    between atoms: _302  and  _303
REMARK  129  A    between atoms: _302  and  _305
REMARK  130  A    between atoms: _305  and  _306
REMARK  131  A    between atoms: _306  and  _307
REMARK  132  A    between atoms: _309  and  _311
REMARK  133  A    between atoms: _311  and  _312
REMARK  134  A    between atoms: _311  and  _314
REMARK  135  A    between atoms: _314  and  _315
REMARK  136  A    between atoms: _321  and  _323
REMARK  137  A    between atoms: _323  and  _324
REMARK  138  A    between atoms: _323  and  _326
REMARK  139  A    between atoms: _328  and  _330
REMARK  140  A    between atoms: _330  and  _331
REMARK  141  A    between atoms: _334  and  _336
REMARK  142  A    between atoms: _336  and  _337
REMARK  143  A    between atoms: _339  and  _341
REMARK  144  A    between atoms: _341  and  _342
REMARK  145  A    between atoms: _341  and  _344
REMARK  146  A    between atoms: _344  and  _345
REMARK  147  A    between atoms: _345  and  _346
REMARK  148  A    between atoms: _349  and  _351
REMARK  149  A    between atoms: _351  and  _352
REMARK  150  A    between atoms: _351  and  _354
REMARK  151  A    between atoms: _354  and  _355
REMARK  152  A    between atoms: _358  and  _360
REMARK  153  A    between atoms: _360  and  _361
REMARK  154  A    between atoms: _364  and  _366
REMARK  155  A    between atoms: _366  and  _367
REMARK  156  A    between atoms: _366  and  _369
REMARK  157  A    between atoms: _369  and  _370
REMARK  158  A    between atoms: _370  and  _493
REMARK  159  A    between atoms: _371  and  _373
REMARK  160  A    between atoms: _373  and  _374
REMARK  161  A    between atoms: _373  and  _376
REMARK  162  A    between atoms: _376  and  _377
REMARK  163  A    between atoms: _377  and  _378
REMARK  164  A    between atoms: _383  and  _385
REMARK  165  A    between atoms: _385  and  _386
REMARK  166  A    between atoms: _388  and  _390
REMARK  167  A    between atoms: _390  and  _391
REMARK  168  A    between atoms: _390  and  _393
REMARK  169  A    between atoms: _393  and  _394
REMARK  170  A    between atoms: _397  and  _399
REMARK  171  A    between atoms: _399  and  _400
REMARK  172  A    between atoms: _399  and  _402
REMARK  173  A    between atoms: _402  and  _403
REMARK  174  A    between atoms: _405  and  _407
REMARK  175  A    between atoms: _407  and  _408
REMARK  176  A    between atoms: _410  and  _412
REMARK  177  A    between atoms: _412  and  _413
REMARK  178  A    between atoms: _415  and  _417
REMARK  179  A    between atoms: _417  and  _418
REMARK  180  A    between atoms: _417  and  _420
REMARK  181  A    between atoms: _420  and  _421
REMARK  182  A    between atoms: _426  and  _428
REMARK  183  A    between atoms: _428  and  _429
REMARK  184  A    between atoms: _428  and  _431
REMARK  185  A    between atoms: _431  and  _432
REMARK  186  A    between atoms: _435  and  _437
REMARK  187  A    between atoms: _437  and  _438
REMARK  188  A    between atoms: _437  and  _440
REMARK  189  A    between atoms: _443  and  _445
REMARK  190  A    between atoms: _445  and  _446
REMARK  191  A    between atoms: _445  and  _448
REMARK  192  A    between atoms: _448  and  _449
REMARK  193  A    between atoms: _451  and  _453
REMARK  194  A    between atoms: _453  and  _454
REMARK  195  A    between atoms: _453  and  _456
REMARK  196  A    between atoms: _456  and  _457
REMARK  197  A    between atoms: _467  and  _469
REMARK  198  A    between atoms: _469  and  _470
REMARK  199  A    between atoms: _472  and  _474
REMARK  200  A    between atoms: _474  and  _475
REMARK  201  A    between atoms: _474  and  _477
REMARK  202  A    between atoms: _477  and  _478
REMARK  203  A    between atoms: _478  and  _479
REMARK  204  A    between atoms: _482  and  _484
REMARK  205  A    between atoms: _484  and  _485
REMARK  206  A    between atoms: _487  and  _489
REMARK  207  A    between atoms: _489  and  _490
REMARK  208  A    between atoms: _489  and  _492
REMARK  209  A    between atoms: _492  and  _493
REMARK  210  A    between atoms: _494  and  _496
REMARK  211  A    between atoms: _496  and  _497
REMARK  212  A    between atoms: _500  and  _502
REMARK  213  A    between atoms: _502  and  _503
REMARK  214  A    between atoms: _502  and  _505
REMARK  215  A    between atoms: _505  and  _506
REMARK  216  A    between atoms: _506  and  _507
REMARK  217  A    between atoms: _507  and  _508
REMARK  218  A    between atoms: _517  and  _519
REMARK  219  A    between atoms: _519  and  _520
REMARK  220  A    between atoms: _519  and  _522
REMARK  221  A    between atoms: _522  and  _523
REMARK  222  A    between atoms: _523  and  _524
REMARK  223  A    between atoms: _524  and  _525
REMARK  224  A    between atoms: _525  and  _526
REMARK  225  A    between atoms: _530  and  _532
REMARK  226  A    between atoms: _532  and  _533
REMARK  227  A    between atoms: _532  and  _535
REMARK  228  A    between atoms: _535  and  _536
REMARK  229  A    between atoms: _541  and  _542
REMARK  230  A    between atoms: _544  and  _546
REMARK  231  A    between atoms: _546  and  _547
REMARK  232  A    between atoms: _549  and  _551
REMARK  233  A    between atoms: _551  and  _552
REMARK  234  A    between atoms: _551  and  _554
REMARK  235  A    between atoms: _554  and  _555
REMARK  236  A    between atoms: _558  and  _560
REMARK  237  A    between atoms: _560  and  _561
REMARK  238  A    between atoms: _560  and  _563
REMARK  239  A    between atoms: _563  and  _564
REMARK  240  A    between atoms: _569  and  _570
REMARK  241  A    between atoms: _572  and  _574
REMARK  242  A    between atoms: _574  and  _575
REMARK  243  A    between atoms: _574  and  _577
REMARK  244  A    between atoms: _577  and  _578
REMARK                            x       y       z     vdW  Elec       q    Type
REMARK                         _______ _______ _______ _____ _____    ______ ____
ROOT
ATOM      1  O   HOH     1       9.381  70.654  -3.008  0.00  0.00    +0.000 OA
ENDROOT
TORSDOF 0
REMARK  Name = ../refined-set-2016/2xbv/2xbv_pocket.pdb
REMARK  244 active torsions:
REMARK  status: ('A' for Active; 'I' for Inactive)
REMARK    1  A    between atoms: _1  and  _5
REMARK    2  A    between atoms: _5  and  _6
REMARK    3  A    between atoms: _5  and  _8
REMARK    4  A    between atoms: _8  and  _9
REMARK    5  A    between atoms: _12  and  _14
REMARK    6  A    between atoms: _14  and  _15
REMARK    7  A    between atoms: _14  and  _17
REMARK    8  A    between atoms: _20  and  _22
REMARK    9  A    between atoms: _22  and  _23
REMARK   10  A    between atoms: _22  and  _25
REMARK   11  A    between atoms: _25  and  _26
REMARK   12  A    between atoms: _31  and  _33
REMARK   13  A    between atoms: _33  and  _34
REMARK   14  A    between atoms: _33  and  _36
REMARK   15  A    between atoms: _36  and  _37
REMARK   16  A    between atoms: _37  and  _38
REMARK   17  A    between atoms: _43  and  _45
REMARK   18  A    between atoms: _45  and  _46
REMARK   19  A    between atoms: _45  and  _48
REMARK   20  A    between atoms: _48  and  _49
REMARK   21  A    between atoms: _55  and  _57
REMARK   22  A    between atoms: _57  and  _58
REMARK   23  A    between atoms: _57  and  _60
REMARK   24  A    between atoms: _60  and  _61
REMARK   25  A    between atoms: _64  and  _66
REMARK   26  A    between atoms: _66  and  _67
REMARK   27  A    between atoms: _66  and  _69
REMARK   28  A    between atoms: _69  and  _70
REMARK   29  A    between atoms: _70  and  _71
REMARK   30  A    between atoms: _71  and  _72
REMARK   31  A    between atoms: _72  and  _73
REMARK   32  A    between atoms: _77  and  _79
REMARK   33  A    between atoms: _79  and  _80
REMARK   34  A    between atoms: _79  and  _82
REMARK   35  A    between atoms: _82  and  _83
REMARK   36  A    between atoms: _83  and  _84
REMARK   37  A    between atoms: _87  and  _89
REMARK   38  A    between atoms: _89  and  _90
REMARK   39  A    between atoms: _89  and  _92
REMARK   40  A    between atoms: _92  and  _93
REMARK   41  A    between atoms: _96  and  _98
REMARK   42  A    between atoms: _98  and  _99
REMARK   43  A    between atoms: _98  and  _101
REMARK   44  A    between atoms: _101  and  _102
REMARK   45  A    between atoms: _107  and  _108
REMARK   46  A    between atoms: _110  and  _112
REMARK   47  A    between atoms: _112  and  _113
REMARK   48  A    between atoms: _112  and  _115
REMARK   49  A    between atoms: _115  and  _116
REMARK   50  A    between atoms: _119  and  _121
REMARK   51  A    between atoms: _121  and  _122
REMARK   52  A    between atoms: _121  and  _124
REMARK   53  A    between atoms: _124  and  _125
REMARK   54  A    between atoms: _128  and  _130
REMARK   55  A    between atoms: _130  and  _131
REMARK   56  A    between atoms: _130  and  _133
REMARK   57  A    between atoms: _136  and  _138
REMARK   58  A    between atoms: _138  and  _139
REMARK   59  A    between atoms: _141  and  _143
REMARK   60  A    between atoms: _143  and  _144
REMARK   61  A    between atoms: _143  and  _146
REMARK   62  A    between atoms: _146  and  _147
REMARK   63  A    between atoms: _147  and  _148
REMARK   64  A    between atoms: _148  and  _149
REMARK   65  A    between atoms: _158  and  _160
REMARK   66  A    between atoms: _160  and  _161
REMARK   67  A    between atoms: _160  and  _163
REMARK   68  A    between atoms: _163  and  _164
REMARK   69  A    between atoms: _167  and  _169
REMARK   70  A    between atoms: _169  and  _170
REMARK   71  A    between atoms: _169  and  _172
REMARK   72  A    between atoms: _172  and  _173
REMARK   73  A    between atoms: _178  and  _180
REMARK   74  A    between atoms: _180  and  _181
REMARK   75  A    between atoms: _180  and  _183
REMARK   76  A    between atoms: _183  and  _184
REMARK   77  A    between atoms: _184  and  _185
REMARK   78  A    between atoms: _188  and  _190
REMARK   79  A    between atoms: _190  and  _191
REMARK   80  A    between atoms: _190  and  _193
REMARK   81  A    between atoms: _193  and  _194
REMARK   82  A    between atoms: _194  and  _195
REMARK   83  A    between atoms: _195  and  _196
REMARK   84  A    between atoms: _196  and  _197
REMARK   85  A    between atoms: _201  and  _203
REMARK   86  A    between atoms: _203  and  _204
REMARK   87  A    between atoms: _206  and  _208
REMARK   88  A    between atoms: _208  and  _209
REMARK   89  A    between atoms: _208  and  _211
REMARK   90  A    between atoms: _212  and  _213
REMARK   91  A    between atoms: _216  and  _218
REMARK   92  A    between atoms: _218  and  _219
REMARK   93  A    between atoms: _218  and  _221
REMARK   94  A    between atoms: _221  and  _222
REMARK   95  A    between atoms: _222  and  _223
REMARK   96  A    between atoms: _228  and  _230
REMARK   97  A    between atoms: _230  and  _231
REMARK   98  A    between atoms: _230  and  _233
REMARK   99  A    between atoms: _233  and  _234
REMARK  100  A    between atoms: _237  and  _239
REMARK  101  A    between atoms: _239  and  _240
REMARK  102  A    between atoms: _239  and  _242
REMARK  103  A    between atoms: _245  and  _247
REMARK  104  A    between atoms: _247  and  _248
REMARK  105  A    between atoms: _247  and  _250
REMARK  106  A    between atoms: _250  and  _251
REMARK  107  A    between atoms: _253  and  _255
REMARK  108  A    between atoms: _255  and  _256
REMARK  109  A    between atoms: _255  and  _258
REMARK  110  A    between atoms: _258  and  _259
REMARK  111  A    between atoms: _261  and  _263
REMARK  112  A    between atoms: _263  and  _264
REMARK  113  A    between atoms: _263  and  _266
REMARK  114  A    between atoms: _266  and  _267
REMARK  115  A    between atoms: _273  and  _275
REMARK  116  A    between atoms: _275  and  _276
REMARK  117  A    between atoms: _275  and  _278
REMARK  118  A    between atoms: _278  and  _279
REMARK  119  A    between atoms: _282  and  _284
REMARK  120  A    between atoms: _284  and  _285
REMARK  121  A    between atoms: _284  and  _287
REMARK  122  A    between atoms: _287  and  _288
REMARK  123  A    between atoms: _291  and  _293
REMARK  124  A    between atoms: _293  and  _294
REMARK  125  A    between atoms: _293  and  _296
REMARK  126  A    between atoms: _296  and  _297
REMARK  127  A    between atoms: _300  and  _302
REMARK  128  A    between atoms: _302  and  _303
REMARK  129  A    between atoms: _302  and  _305
REMARK  130  A    between atoms: _305  and  _306
REMARK  131  A    between atoms: _306  and  _307
REMARK  132  A    between atoms: _309  and  _311
REMARK  133  A    between atoms: _311  and  _312
REMARK  134  A    between atoms: _311  and  _314
REMARK  135  A    between atoms: _314  and  _315
REMARK  136  A    between atoms: _321  and  _323
REMARK  137  A    between atoms: _323  and  _324
REMARK  138  A    between atoms: _323  and  _326
REMARK  139  A    between atoms: _328  and  _330
REMARK  140  A    between atoms: _330  and  _331
REMARK  141  A    between atoms: _334  and  _336
REMARK  142  A    between atoms: _336  and  _337
REMARK  143  A    between atoms: _339  and  _341
REMARK  144  A    between atoms: _341  and  _342
REMARK  145  A    between atoms: _341  and  _344
REMARK  146  A    between atoms: _344  and  _345
REMARK  147  A    between atoms: _345  and  _346
REMARK  148  A    between atoms: _349  and  _351
REMARK  149  A    between atoms: _351  and  _352
REMARK  150  A    between atoms: _351  and  _354
REMARK  151  A    between atoms: _354  and  _355
REMARK  152  A    between atoms: _358  and  _360
REMARK  153  A    between atoms: _360  and  _361
REMARK  154  A    between atoms: _364  and  _366
REMARK  155  A    between atoms: _366  and  _367
REMARK  156  A    between atoms: _366  and  _369
REMARK  157  A    between atoms: _369  and  _370
REMARK  158  A    between atoms: _370  and  _493
REMARK  159  A    between atoms: _371  and  _373
REMARK  160  A    between atoms: _373  and  _374
REMARK  161  A    between atoms: _373  and  _376
REMARK  162  A    between atoms: _376  and  _377
REMARK  163  A    between atoms: _377  and  _378
REMARK  164  A    between atoms: _383  and  _385
REMARK  165  A    between atoms: _385  and  _386
REMARK  166  A    between atoms: _388  and  _390
REMARK  167  A    between atoms: _390  and  _391
REMARK  168  A    between atoms: _390  and  _393
REMARK  169  A    between atoms: _393  and  _394
REMARK  170  A    between atoms: _397  and  _399
REMARK  171  A    between atoms: _399  and  _400
REMARK  172  A    between atoms: _399  and  _402
REMARK  173  A    between atoms: _402  and  _403
REMARK  174  A    between atoms: _405  and  _407
REMARK  175  A    between atoms: _407  and  _408
REMARK  176  A    between atoms: _410  and  _412
REMARK  177  A    between atoms: _412  and  _413
REMARK  178  A    between atoms: _415  and  _417
REMARK  179  A    between atoms: _417  and  _418
REMARK  180  A    between atoms: _417  and  _420
REMARK  181  A    between atoms: _420  and  _421
REMARK  182  A    between atoms: _426  and  _428
REMARK  183  A    between atoms: _428  and  _429
REMARK  184  A    between atoms: _428  and  _431
REMARK  185  A    between atoms: _431  and  _432
REMARK  186  A    between atoms: _435  and  _437
REMARK  187  A    between atoms: _437  and  _438
REMARK  188  A    between atoms: _437  and  _440
REMARK  189  A    between atoms: _443  and  _445
REMARK  190  A    between atoms: _445  and  _446
REMARK  191  A    between atoms: _445  and  _448
REMARK  192  A    between atoms: _448  and  _449
REMARK  193  A    between atoms: _451  and  _453
REMARK  194  A    between atoms: _453  and  _454
REMARK  195  A    between atoms: _453  and  _456
REMARK  196  A    between atoms: _456  and  _457
REMARK  197  A    between atoms: _467  and  _469
REMARK  198  A    between atoms: _469  and  _470
REMARK  199  A    between atoms: _472  and  _474
REMARK  200  A    between atoms: _474  and  _475
REMARK  201  A    between atoms: _474  and  _477
REMARK  202  A    between atoms: _477  and  _478
REMARK  203  A    between atoms: _478  and  _479
REMARK  204  A    between atoms: _482  and  _484
REMARK  205  A    between atoms: _484  and  _485
REMARK  206  A    between atoms: _487  and  _489
REMARK  207  A    between atoms: _489  and  _490
REMARK  208  A    between atoms: _489  and  _492
REMARK  209  A    between atoms: _492  and  _493
REMARK  210  A    between atoms: _494  and  _496
REMARK  211  A    between atoms: _496  and  _497
REMARK  212  A    between atoms: _500  and  _502
REMARK  213  A    between atoms: _502  and  _503
REMARK  214  A    between atoms: _502  and  _505
REMARK  215  A    between atoms: _505  and  _506
REMARK  216  A    between atoms: _506  and  _507
REMARK  217  A    between atoms: _507  and  _508
REMARK  218  A    between atoms: _517  and  _519
REMARK  219  A    between atoms: _519  and  _520
REMARK  220  A    between atoms: _519  and  _522
REMARK  221  A    between atoms: _522  and  _523
REMARK  222  A    between atoms: _523  and  _524
REMARK  223  A    between atoms: _524  and  _525
REMARK  224  A    between atoms: _525  and  _526
REMARK  225  A    between atoms: _530  and  _532
REMARK  226  A    between atoms: _532  and  _533
REMARK  227  A    between atoms: _532  and  _535
REMARK  228  A    between atoms: _535  and  _536
REMARK  229  A    between atoms: _541  and  _542
REMARK  230  A    between atoms: _544  and  _546
REMARK  231  A    between atoms: _546  and  _547
REMARK  232  A    between atoms: _549  and  _551
REMARK  233  A    between atoms: _551  and  _552
REMARK  234  A    between atoms: _551  and  _554
REMARK  235  A    between atoms: _554  and  _555
REMARK  236  A    between atoms: _558  and  _560
REMARK  237  A    between atoms: _560  and  _561
REMARK  238  A    between atoms: _560  and  _563
REMARK  239  A    between atoms: _563  and  _564
REMARK  240  A    between atoms: _569  and  _570
REMARK  241  A    between atoms: _572  and  _574
REMARK  242  A    between atoms: _574  and  _575
REMARK  243  A    between atoms: _574  and  _577
REMARK  244  A    between atoms: _577  and  _578
REMARK                            x       y       z     vdW  Elec       q    Type
REMARK                         _______ _______ _______ _____ _____    ______ ____
ROOT
ATOM      1  O   HOH     1      10.609  67.988  -4.206  0.00  0.00    +0.000 OA
ENDROOT
TORSDOF 0
REMARK  Name = ../refined-set-2016/2xbv/2xbv_pocket.pdb
REMARK  244 active torsions:
REMARK  status: ('A' for Active; 'I' for Inactive)
REMARK    1  A    between atoms: _1  and  _5
REMARK    2  A    between atoms: _5  and  _6
REMARK    3  A    between atoms: _5  and  _8
REMARK    4  A    between atoms: _8  and  _9
REMARK    5  A    between atoms: _12  and  _14
REMARK    6  A    between atoms: _14  and  _15
REMARK    7  A    between atoms: _14  and  _17
REMARK    8  A    between atoms: _20  and  _22
REMARK    9  A    between atoms: _22  and  _23
REMARK   10  A    between atoms: _22  and  _25
REMARK   11  A    between atoms: _25  and  _26
REMARK   12  A    between atoms: _31  and  _33
REMARK   13  A    between atoms: _33  and  _34
REMARK   14  A    between atoms: _33  and  _36
REMARK   15  A    between atoms: _36  and  _37
REMARK   16  A    between atoms: _37  and  _38
REMARK   17  A    between atoms: _43  and  _45
REMARK   18  A    between atoms: _45  and  _46
REMARK   19  A    between atoms: _45  and  _48
REMARK   20  A    between atoms: _48  and  _49
REMARK   21  A    between atoms: _55  and  _57
REMARK   22  A    between atoms: _57  and  _58
REMARK   23  A    between atoms: _57  and  _60
REMARK   24  A    between atoms: _60  and  _61
REMARK   25  A    between atoms: _64  and  _66
REMARK   26  A    between atoms: _66  and  _67
REMARK   27  A    between atoms: _66  and  _69
REMARK   28  A    between atoms: _69  and  _70
REMARK   29  A    between atoms: _70  and  _71
REMARK   30  A    between atoms: _71  and  _72
REMARK   31  A    between atoms: _72  and  _73
REMARK   32  A    between atoms: _77  and  _79
REMARK   33  A    between atoms: _79  and  _80
REMARK   34  A    between atoms: _79  and  _82
REMARK   35  A    between atoms: _82  and  _83
REMARK   36  A    between atoms: _83  and  _84
REMARK   37  A    between atoms: _87  and  _89
REMARK   38  A    between atoms: _89  and  _90
REMARK   39  A    between atoms: _89  and  _92
REMARK   40  A    between atoms: _92  and  _93
REMARK   41  A    between atoms: _96  and  _98
REMARK   42  A    between atoms: _98  and  _99
REMARK   43  A    between atoms: _98  and  _101
REMARK   44  A    between atoms: _101  and  _102
REMARK   45  A    between atoms: _107  and  _108
REMARK   46  A    between atoms: _110  and  _112
REMARK   47  A    between atoms: _112  and  _113
REMARK   48  A    between atoms: _112  and  _115
REMARK   49  A    between atoms: _115  and  _116
REMARK   50  A    between atoms: _119  and  _121
REMARK   51  A    between atoms: _121  and  _122
REMARK   52  A    between atoms: _121  and  _124
REMARK   53  A    between atoms: _124  and  _125
REMARK   54  A    between atoms: _128  and  _130
REMARK   55  A    between atoms: _130  and  _131
REMARK   56  A    between atoms: _130  and  _133
REMARK   57  A    between atoms: _136  and  _138
REMARK   58  A    between atoms: _138  and  _139
REMARK   59  A    between atoms: _141  and  _143
REMARK   60  A    between atoms: _143  and  _144
REMARK   61  A    between atoms: _143  and  _146
REMARK   62  A    between atoms: _146  and  _147
REMARK   63  A    between atoms: _147  and  _148
REMARK   64  A    between atoms: _148  and  _149
REMARK   65  A    between atoms: _158  and  _160
REMARK   66  A    between atoms: _160  and  _161
REMARK   67  A    between atoms: _160  and  _163
REMARK   68  A    between atoms: _163  and  _164
REMARK   69  A    between atoms: _167  and  _169
REMARK   70  A    between atoms: _169  and  _170
REMARK   71  A    between atoms: _169  and  _172
REMARK   72  A    between atoms: _172  and  _173
REMARK   73  A    between atoms: _178  and  _180
REMARK   74  A    between atoms: _180  and  _181
REMARK   75  A    between atoms: _180  and  _183
REMARK   76  A    between atoms: _183  and  _184
REMARK   77  A    between atoms: _184  and  _185
REMARK   78  A    between atoms: _188  and  _190
REMARK   79  A    between atoms: _190  and  _191
REMARK   80  A    between atoms: _190  and  _193
REMARK   81  A    between atoms: _193  and  _194
REMARK   82  A    between atoms: _194  and  _195
REMARK   83  A    between atoms: _195  and  _196
REMARK   84  A    between atoms: _196  and  _197
REMARK   85  A    between atoms: _201  and  _203
REMARK   86  A    between atoms: _203  and  _204
REMARK   87  A    between atoms: _206  and  _208
REMARK   88  A    between atoms: _208  and  _209
REMARK   89  A    between atoms: _208  and  _211
REMARK   90  A    between atoms: _212  and  _213
REMARK   91  A    between atoms: _216  and  _218
REMARK   92  A    between atoms: _218  and  _219
REMARK   93  A    between atoms: _218  and  _221
REMARK   94  A    between atoms: _221  and  _222
REMARK   95  A    between atoms: _222  and  _223
REMARK   96  A    between atoms: _228  and  _230
REMARK   97  A    between atoms: _230  and  _231
REMARK   98  A    between atoms: _230  and  _233
REMARK   99  A    between atoms: _233  and  _234
REMARK  100  A    between atoms: _237  and  _239
REMARK  101  A    between atoms: _239  and  _240
REMARK  102  A    between atoms: _239  and  _242
REMARK  103  A    between atoms: _245  and  _247
REMARK  104  A    between atoms: _247  and  _248
REMARK  105  A    between atoms: _247  and  _250
REMARK  106  A    between atoms: _250  and  _251
REMARK  107  A    between atoms: _253  and  _255
REMARK  108  A    between atoms: _255  and  _256
REMARK  109  A    between atoms: _255  and  _258
REMARK  110  A    between atoms: _258  and  _259
REMARK  111  A    between atoms: _261  and  _263
REMARK  112  A    between atoms: _263  and  _264
REMARK  113  A    between atoms: _263  and  _266
REMARK  114  A    between atoms: _266  and  _267
REMARK  115  A    between atoms: _273  and  _275
REMARK  116  A    between atoms: _275  and  _276
REMARK  117  A    between atoms: _275  and  _278
REMARK  118  A    between atoms: _278  and  _279
REMARK  119  A    between atoms: _282  and  _284
REMARK  120  A    between atoms: _284  and  _285
REMARK  121  A    between atoms: _284  and  _287
REMARK  122  A    between atoms: _287  and  _288
REMARK  123  A    between atoms: _291  and  _293
REMARK  124  A    between atoms: _293  and  _294
REMARK  125  A    between atoms: _293  and  _296
REMARK  126  A    between atoms: _296  and  _297
REMARK  127  A    between atoms: _300  and  _302
REMARK  128  A    between atoms: _302  and  _303
REMARK  129  A    between atoms: _302  and  _305
REMARK  130  A    between atoms: _305  and  _306
REMARK  131  A    between atoms: _306  and  _307
REMARK  132  A    between atoms: _309  and  _311
REMARK  133  A    between atoms: _311  and  _312
REMARK  134  A    between atoms: _311  and  _314
REMARK  135  A    between atoms: _314  and  _315
REMARK  136  A    between atoms: _321  and  _323
REMARK  137  A    between atoms: _323  and  _324
REMARK  138  A    between atoms: _323  and  _326
REMARK  139  A    between atoms: _328  and  _330
REMARK  140  A    between atoms: _330  and  _331
REMARK  141  A    between atoms: _334  and  _336
REMARK  142  A    between atoms: _336  and  _337
REMARK  143  A    between atoms: _339  and  _341
REMARK  144  A    between atoms: _341  and  _342
REMARK  145  A    between atoms: _341  and  _344
REMARK  146  A    between atoms: _344  and  _345
REMARK  147  A    between atoms: _345  and  _346
REMARK  148  A    between atoms: _349  and  _351
REMARK  149  A    between atoms: _351  and  _352
REMARK  150  A    between atoms: _351  and  _354
REMARK  151  A    between atoms: _354  and  _355
REMARK  152  A    between atoms: _358  and  _360
REMARK  153  A    between atoms: _360  and  _361
REMARK  154  A    between atoms: _364  and  _366
REMARK  155  A    between atoms: _366  and  _367
REMARK  156  A    between atoms: _366  and  _369
REMARK  157  A    between atoms: _369  and  _370
REMARK  158  A    between atoms: _370  and  _493
REMARK  159  A    between atoms: _371  and  _373
REMARK  160  A    between atoms: _373  and  _374
REMARK  161  A    between atoms: _373  and  _376
REMARK  162  A    between atoms: _376  and  _377
REMARK  163  A    between atoms: _377  and  _378
REMARK  164  A    between atoms: _383  and  _385
REMARK  165  A    between atoms: _385  and  _386
REMARK  166  A    between atoms: _388  and  _390
REMARK  167  A    between atoms: _390  and  _391
REMARK  168  A    between atoms: _390  and  _393
REMARK  169  A    between atoms: _393  and  _394
REMARK  170  A    between atoms: _397  and  _399
REMARK  171  A    between atoms: _399  and  _400
REMARK  172  A    between atoms: _399  and  _402
REMARK  173  A    between atoms: _402  and  _403
REMARK  174  A    between atoms: _405  and  _407
REMARK  175  A    between atoms: _407  and  _408
REMARK  176  A    between atoms: _410  and  _412
REMARK  177  A    between atoms: _412  and  _413
REMARK  178  A    between atoms: _415  and  _417
REMARK  179  A    between atoms: _417  and  _418
REMARK  180  A    between atoms: _417  and  _420
REMARK  181  A    between atoms: _420  and  _421
REMARK  182  A    between atoms: _426  and  _428
REMARK  183  A    between atoms: _428  and  _429
REMARK  184  A    between atoms: _428  and  _431
REMARK  185  A    between atoms: _431  and  _432
REMARK  186  A    between atoms: _435  and  _437
REMARK  187  A    between atoms: _437  and  _438
REMARK  188  A    between atoms: _437  and  _440
REMARK  189  A    between atoms: _443  and  _445
REMARK  190  A    between atoms: _445  and  _446
REMARK  191  A    between atoms: _445  and  _448
REMARK  192  A    between atoms: _448  and  _449
REMARK  193  A    between atoms: _451  and  _453
REMARK  194  A    between atoms: _453  and  _454
REMARK  195  A    between atoms: _453  and  _456
REMARK  196  A    between atoms: _456  and  _457
REMARK  197  A    between atoms: _467  and  _469
REMARK  198  A    between atoms: _469  and  _470
REMARK  199  A    between atoms: _472  and  _474
REMARK  200  A    between atoms: _474  and  _475
REMARK  201  A    between atoms: _474  and  _477
REMARK  202  A    between atoms: _477  and  _478
REMARK  203  A    between atoms: _478  and  _479
REMARK  204  A    between atoms: _482  and  _484
REMARK  205  A    between atoms: _484  and  _485
REMARK  206  A    between atoms: _487  and  _489
REMARK  207  A    between atoms: _489  and  _490
REMARK  208  A    between atoms: _489  and  _492
REMARK  209  A    between atoms: _492  and  _493
REMARK  210  A    between atoms: _494  and  _496
REMARK  211  A    between atoms: _496  and  _497
REMARK  212  A    between atoms: _500  and  _502
REMARK  213  A    between atoms: _502  and  _503
REMARK  214  A    between atoms: _502  and  _505
REMARK  215  A    between atoms: _505  and  _506
REMARK  216  A    between atoms: _506  and  _507
REMARK  217  A    between atoms: _507  and  _508
REMARK  218  A    between atoms: _517  and  _519
REMARK  219  A    between atoms: _519  and  _520
REMARK  220  A    between atoms: _519  and  _522
REMARK  221  A    between atoms: _522  and  _523
REMARK  222  A    between atoms: _523  and  _524
REMARK  223  A    between atoms: _524  and  _525
REMARK  224  A    between atoms: _525  and  _526
REMARK  225  A    between atoms: _530  and  _532
REMARK  226  A    between atoms: _532  and  _533
REMARK  227  A    between atoms: _532  and  _535
REMARK  228  A    between atoms: _535  and  _536
REMARK  229  A    between atoms: _541  and  _542
REMARK  230  A    between atoms: _544  and  _546
REMARK  231  A    between atoms: _546  and  _547
REMARK  232  A    between atoms: _549  and  _551
REMARK  233  A    between atoms: _551  and  _552
REMARK  234  A    between atoms: _551  and  _554
REMARK  235  A    between atoms: _554  and  _555
REMARK  236  A    between atoms: _558  and  _560
REMARK  237  A    between atoms: _560  and  _561
REMARK  238  A    between atoms: _560  and  _563
REMARK  239  A    between atoms: _563  and  _564
REMARK  240  A    between atoms: _569  and  _570
REMARK  241  A    between atoms: _572  and  _574
REMARK  242  A    between atoms: _574  and  _575
REMARK  243  A    between atoms: _574  and  _577
REMARK  244  A    between atoms: _577  and  _578
REMARK                            x       y       z     vdW  Elec       q    Type
REMARK                         _______ _______ _______ _____ _____    ______ ____
ROOT
ATOM      1  O   HOH     1      14.397  63.918   2.063  0.00  0.00    +0.000 OA
ENDROOT
TORSDOF 0
REMARK  Name = ../refined-set-2016/2xbv/2xbv_pocket.pdb
REMARK  244 active torsions:
REMARK  status: ('A' for Active; 'I' for Inactive)
REMARK    1  A    between atoms: _1  and  _5
REMARK    2  A    between atoms: _5  and  _6
REMARK    3  A    between atoms: _5  and  _8
REMARK    4  A    between atoms: _8  and  _9
REMARK    5  A    between atoms: _12  and  _14
REMARK    6  A    between atoms: _14  and  _15
REMARK    7  A    between atoms: _14  and  _17
REMARK    8  A    between atoms: _20  and  _22
REMARK    9  A    between atoms: _22  and  _23
REMARK   10  A    between atoms: _22  and  _25
REMARK   11  A    between atoms: _25  and  _26
REMARK   12  A    between atoms: _31  and  _33
REMARK   13  A    between atoms: _33  and  _34
REMARK   14  A    between atoms: _33  and  _36
REMARK   15  A    between atoms: _36  and  _37
REMARK   16  A    between atoms: _37  and  _38
REMARK   17  A    between atoms: _43  and  _45
REMARK   18  A    between atoms: _45  and  _46
REMARK   19  A    between atoms: _45  and  _48
REMARK   20  A    between atoms: _48  and  _49
REMARK   21  A    between atoms: _55  and  _57
REMARK   22  A    between atoms: _57  and  _58
REMARK   23  A    between atoms: _57  and  _60
REMARK   24  A    between atoms: _60  and  _61
REMARK   25  A    between atoms: _64  and  _66
REMARK   26  A    between atoms: _66  and  _67
REMARK   27  A    between atoms: _66  and  _69
REMARK   28  A    between atoms: _69  and  _70
REMARK   29  A    between atoms: _70  and  _71
REMARK   30  A    between atoms: _71  and  _72
REMARK   31  A    between atoms: _72  and  _73
REMARK   32  A    between atoms: _77  and  _79
REMARK   33  A    between atoms: _79  and  _80
REMARK   34  A    between atoms: _79  and  _82
REMARK   35  A    between atoms: _82  and  _83
REMARK   36  A    between atoms: _83  and  _84
REMARK   37  A    between atoms: _87  and  _89
REMARK   38  A    between atoms: _89  and  _90
REMARK   39  A    between atoms: _89  and  _92
REMARK   40  A    between atoms: _92  and  _93
REMARK   41  A    between atoms: _96  and  _98
REMARK   42  A    between atoms: _98  and  _99
REMARK   43  A    between atoms: _98  and  _101
REMARK   44  A    between atoms: _101  and  _102
REMARK   45  A    between atoms: _107  and  _108
REMARK   46  A    between atoms: _110  and  _112
REMARK   47  A    between atoms: _112  and  _113
REMARK   48  A    between atoms: _112  and  _115
REMARK   49  A    between atoms: _115  and  _116
REMARK   50  A    between atoms: _119  and  _121
REMARK   51  A    between atoms: _121  and  _122
REMARK   52  A    between atoms: _121  and  _124
REMARK   53  A    between atoms: _124  and  _125
REMARK   54  A    between atoms: _128  and  _130
REMARK   55  A    between atoms: _130  and  _131
REMARK   56  A    between atoms: _130  and  _133
REMARK   57  A    between atoms: _136  and  _138
REMARK   58  A    between atoms: _138  and  _139
REMARK   59  A    between atoms: _141  and  _143
REMARK   60  A    between atoms: _143  and  _144
REMARK   61  A    between atoms: _143  and  _146
REMARK   62  A    between atoms: _146  and  _147
REMARK   63  A    between atoms: _147  and  _148
REMARK   64  A    between atoms: _148  and  _149
REMARK   65  A    between atoms: _158  and  _160
REMARK   66  A    between atoms: _160  and  _161
REMARK   67  A    between atoms: _160  and  _163
REMARK   68  A    between atoms: _163  and  _164
REMARK   69  A    between atoms: _167  and  _169
REMARK   70  A    between atoms: _169  and  _170
REMARK   71  A    between atoms: _169  and  _172
REMARK   72  A    between atoms: _172  and  _173
REMARK   73  A    between atoms: _178  and  _180
REMARK   74  A    between atoms: _180  and  _181
REMARK   75  A    between atoms: _180  and  _183
REMARK   76  A    between atoms: _183  and  _184
REMARK   77  A    between atoms: _184  and  _185
REMARK   78  A    between atoms: _188  and  _190
REMARK   79  A    between atoms: _190  and  _191
REMARK   80  A    between atoms: _190  and  _193
REMARK   81  A    between atoms: _193  and  _194
REMARK   82  A    between atoms: _194  and  _195
REMARK   83  A    between atoms: _195  and  _196
REMARK   84  A    between atoms: _196  and  _197
REMARK   85  A    between atoms: _201  and  _203
REMARK   86  A    between atoms: _203  and  _204
REMARK   87  A    between atoms: _206  and  _208
REMARK   88  A    between atoms: _208  and  _209
REMARK   89  A    between atoms: _208  and  _211
REMARK   90  A    between atoms: _212  and  _213
REMARK   91  A    between atoms: _216  and  _218
REMARK   92  A    between atoms: _218  and  _219
REMARK   93  A    between atoms: _218  and  _221
REMARK   94  A    between atoms: _221  and  _222
REMARK   95  A    between atoms: _222  and  _223
REMARK   96  A    between atoms: _228  and  _230
REMARK   97  A    between atoms: _230  and  _231
REMARK   98  A    between atoms: _230  and  _233
REMARK   99  A    between atoms: _233  and  _234
REMARK  100  A    between atoms: _237  and  _239
REMARK  101  A    between atoms: _239  and  _240
REMARK  102  A    between atoms: _239  and  _242
REMARK  103  A    between atoms: _245  and  _247
REMARK  104  A    between atoms: _247  and  _248
REMARK  105  A    between atoms: _247  and  _250
REMARK  106  A    between atoms: _250  and  _251
REMARK  107  A    between atoms: _253  and  _255
REMARK  108  A    between atoms: _255  and  _256
REMARK  109  A    between atoms: _255  and  _258
REMARK  110  A    between atoms: _258  and  _259
REMARK  111  A    between atoms: _261  and  _263
REMARK  112  A    between atoms: _263  and  _264
REMARK  113  A    between atoms: _263  and  _266
REMARK  114  A    between atoms: _266  and  _267
REMARK  115  A    between atoms: _273  and  _275
REMARK  116  A    between atoms: _275  and  _276
REMARK  117  A    between atoms: _275  and  _278
REMARK  118  A    between atoms: _278  and  _279
REMARK  119  A    between atoms: _282  and  _284
REMARK  120  A    between atoms: _284  and  _285
REMARK  121  A    between atoms: _284  and  _287
REMARK  122  A    between atoms: _287  and  _288
REMARK  123  A    between atoms: _291  and  _293
REMARK  124  A    between atoms: _293  and  _294
REMARK  125  A    between atoms: _293  and  _296
REMARK  126  A    between atoms: _296  and  _297
REMARK  127  A    between atoms: _300  and  _302
REMARK  128  A    between atoms: _302  and  _303
REMARK  129  A    between atoms: _302  and  _305
REMARK  130  A    between atoms: _305  and  _306
REMARK  131  A    between atoms: _306  and  _307
REMARK  132  A    between atoms: _309  and  _311
REMARK  133  A    between atoms: _311  and  _312
REMARK  134  A    between atoms: _311  and  _314
REMARK  135  A    between atoms: _314  and  _315
REMARK  136  A    between atoms: _321  and  _323
REMARK  137  A    between atoms: _323  and  _324
REMARK  138  A    between atoms: _323  and  _326
REMARK  139  A    between atoms: _328  and  _330
REMARK  140  A    between atoms: _330  and  _331
REMARK  141  A    between atoms: _334  and  _336
REMARK  142  A    between atoms: _336  and  _337
REMARK  143  A    between atoms: _339  and  _341
REMARK  144  A    between atoms: _341  and  _342
REMARK  145  A    between atoms: _341  and  _344
REMARK  146  A    between atoms: _344  and  _345
REMARK  147  A    between atoms: _345  and  _346
REMARK  148  A    between atoms: _349  and  _351
REMARK  149  A    between atoms: _351  and  _352
REMARK  150  A    between atoms: _351  and  _354
REMARK  151  A    between atoms: _354  and  _355
REMARK  152  A    between atoms: _358  and  _360
REMARK  153  A    between atoms: _360  and  _361
REMARK  154  A    between atoms: _364  and  _366
REMARK  155  A    between atoms: _366  and  _367
REMARK  156  A    between atoms: _366  and  _369
REMARK  157  A    between atoms: _369  and  _370
REMARK  158  A    between atoms: _370  and  _493
REMARK  159  A    between atoms: _371  and  _373
REMARK  160  A    between atoms: _373  and  _374
REMARK  161  A    between atoms: _373  and  _376
REMARK  162  A    between atoms: _376  and  _377
REMARK  163  A    between atoms: _377  and  _378
REMARK  164  A    between atoms: _383  and  _385
REMARK  165  A    between atoms: _385  and  _386
REMARK  166  A    between atoms: _388  and  _390
REMARK  167  A    between atoms: _390  and  _391
REMARK  168  A    between atoms: _390  and  _393
REMARK  169  A    between atoms: _393  and  _394
REMARK  170  A    between atoms: _397  and  _399
REMARK  171  A    between atoms: _399  and  _400
REMARK  172  A    between atoms: _399  and  _402
REMARK  173  A    between atoms: _402  and  _403
REMARK  174  A    between atoms: _405  and  _407
REMARK  175  A    between atoms: _407  and  _408
REMARK  176  A    between atoms: _410  and  _412
REMARK  177  A    between atoms: _412  and  _413
REMARK  178  A    between atoms: _415  and  _417
REMARK  179  A    between atoms: _417  and  _418
REMARK  180  A    between atoms: _417  and  _420
REMARK  181  A    between atoms: _420  and  _421
REMARK  182  A    between atoms: _426  and  _428
REMARK  183  A    between atoms: _428  and  _429
REMARK  184  A    between atoms: _428  and  _431
REMARK  185  A    between atoms: _431  and  _432
REMARK  186  A    between atoms: _435  and  _437
REMARK  187  A    between atoms: _437  and  _438
REMARK  188  A    between atoms: _437  and  _440
REMARK  189  A    between atoms: _443  and  _445
REMARK  190  A    between atoms: _445  and  _446
REMARK  191  A    between atoms: _445  and  _448
REMARK  192  A    between atoms: _448  and  _449
REMARK  193  A    between atoms: _451  and  _453
REMARK  194  A    between atoms: _453  and  _454
REMARK  195  A    between atoms: _453  and  _456
REMARK  196  A    between atoms: _456  and  _457
REMARK  197  A    between atoms: _467  and  _469
REMARK  198  A    between atoms: _469  and  _470
REMARK  199  A    between atoms: _472  and  _474
REMARK  200  A    between atoms: _474  and  _475
REMARK  201  A    between atoms: _474  and  _477
REMARK  202  A    between atoms: _477  and  _478
REMARK  203  A    between atoms: _478  and  _479
REMARK  204  A    between atoms: _482  and  _484
REMARK  205  A    between atoms: _484  and  _485
REMARK  206  A    between atoms: _487  and  _489
REMARK  207  A    between atoms: _489  and  _490
REMARK  208  A    between atoms: _489  and  _492
REMARK  209  A    between atoms: _492  and  _493
REMARK  210  A    between atoms: _494  and  _496
REMARK  211  A    between atoms: _496  and  _497
REMARK  212  A    between atoms: _500  and  _502
REMARK  213  A    between atoms: _502  and  _503
REMARK  214  A    between atoms: _502  and  _505
REMARK  215  A    between atoms: _505  and  _506
REMARK  216  A    between atoms: _506  and  _507
REMARK  217  A    between atoms: _507  and  _508
REMARK  218  A    between atoms: _517  and  _519
REMARK  219  A    between atoms: _519  and  _520
REMARK  220  A    between atoms: _519  and  _522
REMARK  221  A    between atoms: _522  and  _523
REMARK  222  A    between atoms: _523  and  _524
REMARK  223  A    between atoms: _524  and  _525
REMARK  224  A    between atoms: _525  and  _526
REMARK  225  A    between atoms: _530  and  _532
REMARK  226  A    between atoms: _532  and  _533
REMARK  227  A    between atoms: _532  and  _535
REMARK  228  A    between atoms: _535  and  _536
REMARK  229  A    between atoms: _541  and  _542
REMARK  230  A    between atoms: _544  and  _546
REMARK  231  A    between atoms: _546  and  _547
REMARK  232  A    between atoms: _549  and  _551
REMARK  233  A    between atoms: _551  and  _552
REMARK  234  A    between atoms: _551  and  _554
REMARK  235  A    between atoms: _554  and  _555
REMARK  236  A    between atoms: _558  and  _560
REMARK  237  A    between atoms: _560  and  _561
REMARK  238  A    between atoms: _560  and  _563
REMARK  239  A    between atoms: _563  and  _564
REMARK  240  A    between atoms: _569  and  _570
REMARK  241  A    between atoms: _572  and  _574
REMARK  242  A    between atoms: _574  and  _575
REMARK  243  A    between atoms: _574  and  _577
REMARK  244  A    between atoms: _577  and  _578
REMARK                            x       y       z     vdW  Elec       q    Type
REMARK                         _______ _______ _______ _____ _____    ______ ____
ROOT
ATOM      1  O   HOH     1      12.202  63.184   1.349  0.00  0.00    +0.000 OA
ENDROOT
TORSDOF 0
REMARK  Name = ../refined-set-2016/2xbv/2xbv_pocket.pdb
REMARK  244 active torsions:
REMARK  status: ('A' for Active; 'I' for Inactive)
REMARK    1  A    between atoms: _1  and  _5
REMARK    2  A    between atoms: _5  and  _6
REMARK    3  A    between atoms: _5  and  _8
REMARK    4  A    between atoms: _8  and  _9
REMARK    5  A    between atoms: _12  and  _14
REMARK    6  A    between atoms: _14  and  _15
REMARK    7  A    between atoms: _14  and  _17
REMARK    8  A    between atoms: _20  and  _22
REMARK    9  A    between atoms: _22  and  _23
REMARK   10  A    between atoms: _22  and  _25
REMARK   11  A    between atoms: _25  and  _26
REMARK   12  A    between atoms: _31  and  _33
REMARK   13  A    between atoms: _33  and  _34
REMARK   14  A    between atoms: _33  and  _36
REMARK   15  A    between atoms: _36  and  _37
REMARK   16  A    between atoms: _37  and  _38
REMARK   17  A    between atoms: _43  and  _45
REMARK   18  A    between atoms: _45  and  _46
REMARK   19  A    between atoms: _45  and  _48
REMARK   20  A    between atoms: _48  and  _49
REMARK   21  A    between atoms: _55  and  _57
REMARK   22  A    between atoms: _57  and  _58
REMARK   23  A    between atoms: _57  and  _60
REMARK   24  A    between atoms: _60  and  _61
REMARK   25  A    between atoms: _64  and  _66
REMARK   26  A    between atoms: _66  and  _67
REMARK   27  A    between atoms: _66  and  _69
REMARK   28  A    between atoms: _69  and  _70
REMARK   29  A    between atoms: _70  and  _71
REMARK   30  A    between atoms: _71  and  _72
REMARK   31  A    between atoms: _72  and  _73
REMARK   32  A    between atoms: _77  and  _79
REMARK   33  A    between atoms: _79  and  _80
REMARK   34  A    between atoms: _79  and  _82
REMARK   35  A    between atoms: _82  and  _83
REMARK   36  A    between atoms: _83  and  _84
REMARK   37  A    between atoms: _87  and  _89
REMARK   38  A    between atoms: _89  and  _90
REMARK   39  A    between atoms: _89  and  _92
REMARK   40  A    between atoms: _92  and  _93
REMARK   41  A    between atoms: _96  and  _98
REMARK   42  A    between atoms: _98  and  _99
REMARK   43  A    between atoms: _98  and  _101
REMARK   44  A    between atoms: _101  and  _102
REMARK   45  A    between atoms: _107  and  _108
REMARK   46  A    between atoms: _110  and  _112
REMARK   47  A    between atoms: _112  and  _113
REMARK   48  A    between atoms: _112  and  _115
REMARK   49  A    between atoms: _115  and  _116
REMARK   50  A    between atoms: _119  and  _121
REMARK   51  A    between atoms: _121  and  _122
REMARK   52  A    between atoms: _121  and  _124
REMARK   53  A    between atoms: _124  and  _125
REMARK   54  A    between atoms: _128  and  _130
REMARK   55  A    between atoms: _130  and  _131
REMARK   56  A    between atoms: _130  and  _133
REMARK   57  A    between atoms: _136  and  _138
REMARK   58  A    between atoms: _138  and  _139
REMARK   59  A    between atoms: _141  and  _143
REMARK   60  A    between atoms: _143  and  _144
REMARK   61  A    between atoms: _143  and  _146
REMARK   62  A    between atoms: _146  and  _147
REMARK   63  A    between atoms: _147  and  _148
REMARK   64  A    between atoms: _148  and  _149
REMARK   65  A    between atoms: _158  and  _160
REMARK   66  A    between atoms: _160  and  _161
REMARK   67  A    between atoms: _160  and  _163
REMARK   68  A    between atoms: _163  and  _164
REMARK   69  A    between atoms: _167  and  _169
REMARK   70  A    between atoms: _169  and  _170
REMARK   71  A    between atoms: _169  and  _172
REMARK   72  A    between atoms: _172  and  _173
REMARK   73  A    between atoms: _178  and  _180
REMARK   74  A    between atoms: _180  and  _181
REMARK   75  A    between atoms: _180  and  _183
REMARK   76  A    between atoms: _183  and  _184
REMARK   77  A    between atoms: _184  and  _185
REMARK   78  A    between atoms: _188  and  _190
REMARK   79  A    between atoms: _190  and  _191
REMARK   80  A    between atoms: _190  and  _193
REMARK   81  A    between atoms: _193  and  _194
REMARK   82  A    between atoms: _194  and  _195
REMARK   83  A    between atoms: _195  and  _196
REMARK   84  A    between atoms: _196  and  _197
REMARK   85  A    between atoms: _201  and  _203
REMARK   86  A    between atoms: _203  and  _204
REMARK   87  A    between atoms: _206  and  _208
REMARK   88  A    between atoms: _208  and  _209
REMARK   89  A    between atoms: _208  and  _211
REMARK   90  A    between atoms: _212  and  _213
REMARK   91  A    between atoms: _216  and  _218
REMARK   92  A    between atoms: _218  and  _219
REMARK   93  A    between atoms: _218  and  _221
REMARK   94  A    between atoms: _221  and  _222
REMARK   95  A    between atoms: _222  and  _223
REMARK   96  A    between atoms: _228  and  _230
REMARK   97  A    between atoms: _230  and  _231
REMARK   98  A    between atoms: _230  and  _233
REMARK   99  A    between atoms: _233  and  _234
REMARK  100  A    between atoms: _237  and  _239
REMARK  101  A    between atoms: _239  and  _240
REMARK  102  A    between atoms: _239  and  _242
REMARK  103  A    between atoms: _245  and  _247
REMARK  104  A    between atoms: _247  and  _248
REMARK  105  A    between atoms: _247  and  _250
REMARK  106  A    between atoms: _250  and  _251
REMARK  107  A    between atoms: _253  and  _255
REMARK  108  A    between atoms: _255  and  _256
REMARK  109  A    between atoms: _255  and  _258
REMARK  110  A    between atoms: _258  and  _259
REMARK  111  A    between atoms: _261  and  _263
REMARK  112  A    between atoms: _263  and  _264
REMARK  113  A    between atoms: _263  and  _266
REMARK  114  A    between atoms: _266  and  _267
REMARK  115  A    between atoms: _273  and  _275
REMARK  116  A    between atoms: _275  and  _276
REMARK  117  A    between atoms: _275  and  _278
REMARK  118  A    between atoms: _278  and  _279
REMARK  119  A    between atoms: _282  and  _284
REMARK  120  A    between atoms: _284  and  _285
REMARK  121  A    between atoms: _284  and  _287
REMARK  122  A    between atoms: _287  and  _288
REMARK  123  A    between atoms: _291  and  _293
REMARK  124  A    between atoms: _293  and  _294
REMARK  125  A    between atoms: _293  and  _296
REMARK  126  A    between atoms: _296  and  _297
REMARK  127  A    between atoms: _300  and  _302
REMARK  128  A    between atoms: _302  and  _303
REMARK  129  A    between atoms: _302  and  _305
REMARK  130  A    between atoms: _305  and  _306
REMARK  131  A    between atoms: _306  and  _307
REMARK  132  A    between atoms: _309  and  _311
REMARK  133  A    between atoms: _311  and  _312
REMARK  134  A    between atoms: _311  and  _314
REMARK  135  A    between atoms: _314  and  _315
REMARK  136  A    between atoms: _321  and  _323
REMARK  137  A    between atoms: _323  and  _324
REMARK  138  A    between atoms: _323  and  _326
REMARK  139  A    between atoms: _328  and  _330
REMARK  140  A    between atoms: _330  and  _331
REMARK  141  A    between atoms: _334  and  _336
REMARK  142  A    between atoms: _336  and  _337
REMARK  143  A    between atoms: _339  and  _341
REMARK  144  A    between atoms: _341  and  _342
REMARK  145  A    between atoms: _341  and  _344
REMARK  146  A    between atoms: _344  and  _345
REMARK  147  A    between atoms: _345  and  _346
REMARK  148  A    between atoms: _349  and  _351
REMARK  149  A    between atoms: _351  and  _352
REMARK  150  A    between atoms: _351  and  _354
REMARK  151  A    between atoms: _354  and  _355
REMARK  152  A    between atoms: _358  and  _360
REMARK  153  A    between atoms: _360  and  _361
REMARK  154  A    between atoms: _364  and  _366
REMARK  155  A    between atoms: _366  and  _367
REMARK  156  A    between atoms: _366  and  _369
REMARK  157  A    between atoms: _369  and  _370
REMARK  158  A    between atoms: _370  and  _493
REMARK  159  A    between atoms: _371  and  _373
REMARK  160  A    between atoms: _373  and  _374
REMARK  161  A    between atoms: _373  and  _376
REMARK  162  A    between atoms: _376  and  _377
REMARK  163  A    between atoms: _377  and  _378
REMARK  164  A    between atoms: _383  and  _385
REMARK  165  A    between atoms: _385  and  _386
REMARK  166  A    between atoms: _388  and  _390
REMARK  167  A    between atoms: _390  and  _391
REMARK  168  A    between atoms: _390  and  _393
REMARK  169  A    between atoms: _393  and  _394
REMARK  170  A    between atoms: _397  and  _399
REMARK  171  A    between atoms: _399  and  _400
REMARK  172  A    between atoms: _399  and  _402
REMARK  173  A    between atoms: _402  and  _403
REMARK  174  A    between atoms: _405  and  _407
REMARK  175  A    between atoms: _407  and  _408
REMARK  176  A    between atoms: _410  and  _412
REMARK  177  A    between atoms: _412  and  _413
REMARK  178  A    between atoms: _415  and  _417
REMARK  179  A    between atoms: _417  and  _418
REMARK  180  A    between atoms: _417  and  _420
REMARK  181  A    between atoms: _420  and  _421
REMARK  182  A    between atoms: _426  and  _428
REMARK  183  A    between atoms: _428  and  _429
REMARK  184  A    between atoms: _428  and  _431
REMARK  185  A    between atoms: _431  and  _432
REMARK  186  A    between atoms: _435  and  _437
REMARK  187  A    between atoms: _437  and  _438
REMARK  188  A    between atoms: _437  and  _440
REMARK  189  A    between atoms: _443  and  _445
REMARK  190  A    between atoms: _445  and  _446
REMARK  191  A    between atoms: _445  and  _448
REMARK  192  A    between atoms: _448  and  _449
REMARK  193  A    between atoms: _451  and  _453
REMARK  194  A    between atoms: _453  and  _454
REMARK  195  A    between atoms: _453  and  _456
REMARK  196  A    between atoms: _456  and  _457
REMARK  197  A    between atoms: _467  and  _469
REMARK  198  A    between atoms: _469  and  _470
REMARK  199  A    between atoms: _472  and  _474
REMARK  200  A    between atoms: _474  and  _475
REMARK  201  A    between atoms: _474  and  _477
REMARK  202  A    between atoms: _477  and  _478
REMARK  203  A    between atoms: _478  and  _479
REMARK  204  A    between atoms: _482  and  _484
REMARK  205  A    between atoms: _484  and  _485
REMARK  206  A    between atoms: _487  and  _489
REMARK  207  A    between atoms: _489  and  _490
REMARK  208  A    between atoms: _489  and  _492
REMARK  209  A    between atoms: _492  and  _493
REMARK  210  A    between atoms: _494  and  _496
REMARK  211  A    between atoms: _496  and  _497
REMARK  212  A    between atoms: _500  and  _502
REMARK  213  A    between atoms: _502  and  _503
REMARK  214  A    between atoms: _502  and  _505
REMARK  215  A    between atoms: _505  and  _506
REMARK  216  A    between atoms: _506  and  _507
REMARK  217  A    between atoms: _507  and  _508
REMARK  218  A    between atoms: _517  and  _519
REMARK  219  A    between atoms: _519  and  _520
REMARK  220  A    between atoms: _519  and  _522
REMARK  221  A    between atoms: _522  and  _523
REMARK  222  A    between atoms: _523  and  _524
REMARK  223  A    between atoms: _524  and  _525
REMARK  224  A    between atoms: _525  and  _526
REMARK  225  A    between atoms: _530  and  _532
REMARK  226  A    between atoms: _532  and  _533
REMARK  227  A    between atoms: _532  and  _535
REMARK  228  A    between atoms: _535  and  _536
REMARK  229  A    between atoms: _541  and  _542
REMARK  230  A    between atoms: _544  and  _546
REMARK  231  A    between atoms: _546  and  _547
REMARK  232  A    between atoms: _549  and  _551
REMARK  233  A    between atoms: _551  and  _552
REMARK  234  A    between atoms: _551  and  _554
REMARK  235  A    between atoms: _554  and  _555
REMARK  236  A    between atoms: _558  and  _560
REMARK  237  A    between atoms: _560  and  _561
REMARK  238  A    between atoms: _560  and  _563
REMARK  239  A    between atoms: _563  and  _564
REMARK  240  A    between atoms: _569  and  _570
REMARK  241  A    between atoms: _572  and  _574
REMARK  242  A    between atoms: _574  and  _575
REMARK  243  A    between atoms: _574  and  _577
REMARK  244  A    between atoms: _577  and  _578
REMARK                            x       y       z     vdW  Elec       q    Type
REMARK                         _______ _______ _______ _____ _____    ______ ____
ROOT
ATOM      1  O   HOH     1       8.298  59.905  10.864  0.00  0.00    +0.000 OA
ENDROOT
TORSDOF 0
REMARK  Name = ../refined-set-2016/2xbv/2xbv_pocket.pdb
REMARK  244 active torsions:
REMARK  status: ('A' for Active; 'I' for Inactive)
REMARK    1  A    between atoms: _1  and  _5
REMARK    2  A    between atoms: _5  and  _6
REMARK    3  A    between atoms: _5  and  _8
REMARK    4  A    between atoms: _8  and  _9
REMARK    5  A    between atoms: _12  and  _14
REMARK    6  A    between atoms: _14  and  _15
REMARK    7  A    between atoms: _14  and  _17
REMARK    8  A    between atoms: _20  and  _22
REMARK    9  A    between atoms: _22  and  _23
REMARK   10  A    between atoms: _22  and  _25
REMARK   11  A    between atoms: _25  and  _26
REMARK   12  A    between atoms: _31  and  _33
REMARK   13  A    between atoms: _33  and  _34
REMARK   14  A    between atoms: _33  and  _36
REMARK   15  A    between atoms: _36  and  _37
REMARK   16  A    between atoms: _37  and  _38
REMARK   17  A    between atoms: _43  and  _45
REMARK   18  A    between atoms: _45  and  _46
REMARK   19  A    between atoms: _45  and  _48
REMARK   20  A    between atoms: _48  and  _49
REMARK   21  A    between atoms: _55  and  _57
REMARK   22  A    between atoms: _57  and  _58
REMARK   23  A    between atoms: _57  and  _60
REMARK   24  A    between atoms: _60  and  _61
REMARK   25  A    between atoms: _64  and  _66
REMARK   26  A    between atoms: _66  and  _67
REMARK   27  A    between atoms: _66  and  _69
REMARK   28  A    between atoms: _69  and  _70
REMARK   29  A    between atoms: _70  and  _71
REMARK   30  A    between atoms: _71  and  _72
REMARK   31  A    between atoms: _72  and  _73
REMARK   32  A    between atoms: _77  and  _79
REMARK   33  A    between atoms: _79  and  _80
REMARK   34  A    between atoms: _79  and  _82
REMARK   35  A    between atoms: _82  and  _83
REMARK   36  A    between atoms: _83  and  _84
REMARK   37  A    between atoms: _87  and  _89
REMARK   38  A    between atoms: _89  and  _90
REMARK   39  A    between atoms: _89  and  _92
REMARK   40  A    between atoms: _92  and  _93
REMARK   41  A    between atoms: _96  and  _98
REMARK   42  A    between atoms: _98  and  _99
REMARK   43  A    between atoms: _98  and  _101
REMARK   44  A    between atoms: _101  and  _102
REMARK   45  A    between atoms: _107  and  _108
REMARK   46  A    between atoms: _110  and  _112
REMARK   47  A    between atoms: _112  and  _113
REMARK   48  A    between atoms: _112  and  _115
REMARK   49  A    between atoms: _115  and  _116
REMARK   50  A    between atoms: _119  and  _121
REMARK   51  A    between atoms: _121  and  _122
REMARK   52  A    between atoms: _121  and  _124
REMARK   53  A    between atoms: _124  and  _125
REMARK   54  A    between atoms: _128  and  _130
REMARK   55  A    between atoms: _130  and  _131
REMARK   56  A    between atoms: _130  and  _133
REMARK   57  A    between atoms: _136  and  _138
REMARK   58  A    between atoms: _138  and  _139
REMARK   59  A    between atoms: _141  and  _143
REMARK   60  A    between atoms: _143  and  _144
REMARK   61  A    between atoms: _143  and  _146
REMARK   62  A    between atoms: _146  and  _147
REMARK   63  A    between atoms: _147  and  _148
REMARK   64  A    between atoms: _148  and  _149
REMARK   65  A    between atoms: _158  and  _160
REMARK   66  A    between atoms: _160  and  _161
REMARK   67  A    between atoms: _160  and  _163
REMARK   68  A    between atoms: _163  and  _164
REMARK   69  A    between atoms: _167  and  _169
REMARK   70  A    between atoms: _169  and  _170
REMARK   71  A    between atoms: _169  and  _172
REMARK   72  A    between atoms: _172  and  _173
REMARK   73  A    between atoms: _178  and  _180
REMARK   74  A    between atoms: _180  and  _181
REMARK   75  A    between atoms: _180  and  _183
REMARK   76  A    between atoms: _183  and  _184
REMARK   77  A    between atoms: _184  and  _185
REMARK   78  A    between atoms: _188  and  _190
REMARK   79  A    between atoms: _190  and  _191
REMARK   80  A    between atoms: _190  and  _193
REMARK   81  A    between atoms: _193  and  _194
REMARK   82  A    between atoms: _194  and  _195
REMARK   83  A    between atoms: _195  and  _196
REMARK   84  A    between atoms: _196  and  _197
REMARK   85  A    between atoms: _201  and  _203
REMARK   86  A    between atoms: _203  and  _204
REMARK   87  A    between atoms: _206  and  _208
REMARK   88  A    between atoms: _208  and  _209
REMARK   89  A    between atoms: _208  and  _211
REMARK   90  A    between atoms: _212  and  _213
REMARK   91  A    between atoms: _216  and  _218
REMARK   92  A    between atoms: _218  and  _219
REMARK   93  A    between atoms: _218  and  _221
REMARK   94  A    between atoms: _221  and  _222
REMARK   95  A    between atoms: _222  and  _223
REMARK   96  A    between atoms: _228  and  _230
REMARK   97  A    between atoms: _230  and  _231
REMARK   98  A    between atoms: _230  and  _233
REMARK   99  A    between atoms: _233  and  _234
REMARK  100  A    between atoms: _237  and  _239
REMARK  101  A    between atoms: _239  and  _240
REMARK  102  A    between atoms: _239  and  _242
REMARK  103  A    between atoms: _245  and  _247
REMARK  104  A    between atoms: _247  and  _248
REMARK  105  A    between atoms: _247  and  _250
REMARK  106  A    between atoms: _250  and  _251
REMARK  107  A    between atoms: _253  and  _255
REMARK  108  A    between atoms: _255  and  _256
REMARK  109  A    between atoms: _255  and  _258
REMARK  110  A    between atoms: _258  and  _259
REMARK  111  A    between atoms: _261  and  _263
REMARK  112  A    between atoms: _263  and  _264
REMARK  113  A    between atoms: _263  and  _266
REMARK  114  A    between atoms: _266  and  _267
REMARK  115  A    between atoms: _273  and  _275
REMARK  116  A    between atoms: _275  and  _276
REMARK  117  A    between atoms: _275  and  _278
REMARK  118  A    between atoms: _278  and  _279
REMARK  119  A    between atoms: _282  and  _284
REMARK  120  A    between atoms: _284  and  _285
REMARK  121  A    between atoms: _284  and  _287
REMARK  122  A    between atoms: _287  and  _288
REMARK  123  A    between atoms: _291  and  _293
REMARK  124  A    between atoms: _293  and  _294
REMARK  125  A    between atoms: _293  and  _296
REMARK  126  A    between atoms: _296  and  _297
REMARK  127  A    between atoms: _300  and  _302
REMARK  128  A    between atoms: _302  and  _303
REMARK  129  A    between atoms: _302  and  _305
REMARK  130  A    between atoms: _305  and  _306
REMARK  131  A    between atoms: _306  and  _307
REMARK  132  A    between atoms: _309  and  _311
REMARK  133  A    between atoms: _311  and  _312
REMARK  134  A    between atoms: _311  and  _314
REMARK  135  A    between atoms: _314  and  _315
REMARK  136  A    between atoms: _321  and  _323
REMARK  137  A    between atoms: _323  and  _324
REMARK  138  A    between atoms: _323  and  _326
REMARK  139  A    between atoms: _328  and  _330
REMARK  140  A    between atoms: _330  and  _331
REMARK  141  A    between atoms: _334  and  _336
REMARK  142  A    between atoms: _336  and  _337
REMARK  143  A    between atoms: _339  and  _341
REMARK  144  A    between atoms: _341  and  _342
REMARK  145  A    between atoms: _341  and  _344
REMARK  146  A    between atoms: _344  and  _345
REMARK  147  A    between atoms: _345  and  _346
REMARK  148  A    between atoms: _349  and  _351
REMARK  149  A    between atoms: _351  and  _352
REMARK  150  A    between atoms: _351  and  _354
REMARK  151  A    between atoms: _354  and  _355
REMARK  152  A    between atoms: _358  and  _360
REMARK  153  A    between atoms: _360  and  _361
REMARK  154  A    between atoms: _364  and  _366
REMARK  155  A    between atoms: _366  and  _367
REMARK  156  A    between atoms: _366  and  _369
REMARK  157  A    between atoms: _369  and  _370
REMARK  158  A    between atoms: _370  and  _493
REMARK  159  A    between atoms: _371  and  _373
REMARK  160  A    between atoms: _373  and  _374
REMARK  161  A    between atoms: _373  and  _376
REMARK  162  A    between atoms: _376  and  _377
REMARK  163  A    between atoms: _377  and  _378
REMARK  164  A    between atoms: _383  and  _385
REMARK  165  A    between atoms: _385  and  _386
REMARK  166  A    between atoms: _388  and  _390
REMARK  167  A    between atoms: _390  and  _391
REMARK  168  A    between atoms: _390  and  _393
REMARK  169  A    between atoms: _393  and  _394
REMARK  170  A    between atoms: _397  and  _399
REMARK  171  A    between atoms: _399  and  _400
REMARK  172  A    between atoms: _399  and  _402
REMARK  173  A    between atoms: _402  and  _403
REMARK  174  A    between atoms: _405  and  _407
REMARK  175  A    between atoms: _407  and  _408
REMARK  176  A    between atoms: _410  and  _412
REMARK  177  A    between atoms: _412  and  _413
REMARK  178  A    between atoms: _415  and  _417
REMARK  179  A    between atoms: _417  and  _418
REMARK  180  A    between atoms: _417  and  _420
REMARK  181  A    between atoms: _420  and  _421
REMARK  182  A    between atoms: _426  and  _428
REMARK  183  A    between atoms: _428  and  _429
REMARK  184  A    between atoms: _428  and  _431
REMARK  185  A    between atoms: _431  and  _432
REMARK  186  A    between atoms: _435  and  _437
REMARK  187  A    between atoms: _437  and  _438
REMARK  188  A    between atoms: _437  and  _440
REMARK  189  A    between atoms: _443  and  _445
REMARK  190  A    between atoms: _445  and  _446
REMARK  191  A    between atoms: _445  and  _448
REMARK  192  A    between atoms: _448  and  _449
REMARK  193  A    between atoms: _451  and  _453
REMARK  194  A    between atoms: _453  and  _454
REMARK  195  A    between atoms: _453  and  _456
REMARK  196  A    between atoms: _456  and  _457
REMARK  197  A    between atoms: _467  and  _469
REMARK  198  A    between atoms: _469  and  _470
REMARK  199  A    between atoms: _472  and  _474
REMARK  200  A    between atoms: _474  and  _475
REMARK  201  A    between atoms: _474  and  _477
REMARK  202  A    between atoms: _477  and  _478
REMARK  203  A    between atoms: _478  and  _479
REMARK  204  A    between atoms: _482  and  _484
REMARK  205  A    between atoms: _484  and  _485
REMARK  206  A    between atoms: _487  and  _489
REMARK  207  A    between atoms: _489  and  _490
REMARK  208  A    between atoms: _489  and  _492
REMARK  209  A    between atoms: _492  and  _493
REMARK  210  A    between atoms: _494  and  _496
REMARK  211  A    between atoms: _496  and  _497
REMARK  212  A    between atoms: _500  and  _502
REMARK  213  A    between atoms: _502  and  _503
REMARK  214  A    between atoms: _502  and  _505
REMARK  215  A    between atoms: _505  and  _506
REMARK  216  A    between atoms: _506  and  _507
REMARK  217  A    between atoms: _507  and  _508
REMARK  218  A    between atoms: _517  and  _519
REMARK  219  A    between atoms: _519  and  _520
REMARK  220  A    between atoms: _519  and  _522
REMARK  221  A    between atoms: _522  and  _523
REMARK  222  A    between atoms: _523  and  _524
REMARK  223  A    between atoms: _524  and  _525
REMARK  224  A    between atoms: _525  and  _526
REMARK  225  A    between atoms: _530  and  _532
REMARK  226  A    between atoms: _532  and  _533
REMARK  227  A    between atoms: _532  and  _535
REMARK  228  A    between atoms: _535  and  _536
REMARK  229  A    between atoms: _541  and  _542
REMARK  230  A    between atoms: _544  and  _546
REMARK  231  A    between atoms: _546  and  _547
REMARK  232  A    between atoms: _549  and  _551
REMARK  233  A    between atoms: _551  and  _552
REMARK  234  A    between atoms: _551  and  _554
REMARK  235  A    between atoms: _554  and  _555
REMARK  236  A    between atoms: _558  and  _560
REMARK  237  A    between atoms: _560  and  _561
REMARK  238  A    between atoms: _560  and  _563
REMARK  239  A    between atoms: _563  and  _564
REMARK  240  A    between atoms: _569  and  _570
REMARK  241  A    between atoms: _572  and  _574
REMARK  242  A    between atoms: _574  and  _575
REMARK  243  A    between atoms: _574  and  _577
REMARK  244  A    between atoms: _577  and  _578
REMARK                            x       y       z     vdW  Elec       q    Type
REMARK                         _______ _______ _______ _____ _____    ______ ____
ROOT
ATOM      1  O   HOH     1       5.602  69.373   4.940  0.00  0.00    +0.000 OA
ENDROOT
TORSDOF 0
REMARK  Name = ../refined-set-2016/2xbv/2xbv_pocket.pdb
REMARK  244 active torsions:
REMARK  status: ('A' for Active; 'I' for Inactive)
REMARK    1  A    between atoms: _1  and  _5
REMARK    2  A    between atoms: _5  and  _6
REMARK    3  A    between atoms: _5  and  _8
REMARK    4  A    between atoms: _8  and  _9
REMARK    5  A    between atoms: _12  and  _14
REMARK    6  A    between atoms: _14  and  _15
REMARK    7  A    between atoms: _14  and  _17
REMARK    8  A    between atoms: _20  and  _22
REMARK    9  A    between atoms: _22  and  _23
REMARK   10  A    between atoms: _22  and  _25
REMARK   11  A    between atoms: _25  and  _26
REMARK   12  A    between atoms: _31  and  _33
REMARK   13  A    between atoms: _33  and  _34
REMARK   14  A    between atoms: _33  and  _36
REMARK   15  A    between atoms: _36  and  _37
REMARK   16  A    between atoms: _37  and  _38
REMARK   17  A    between atoms: _43  and  _45
REMARK   18  A    between atoms: _45  and  _46
REMARK   19  A    between atoms: _45  and  _48
REMARK   20  A    between atoms: _48  and  _49
REMARK   21  A    between atoms: _55  and  _57
REMARK   22  A    between atoms: _57  and  _58
REMARK   23  A    between atoms: _57  and  _60
REMARK   24  A    between atoms: _60  and  _61
REMARK   25  A    between atoms: _64  and  _66
REMARK   26  A    between atoms: _66  and  _67
REMARK   27  A    between atoms: _66  and  _69
REMARK   28  A    between atoms: _69  and  _70
REMARK   29  A    between atoms: _70  and  _71
REMARK   30  A    between atoms: _71  and  _72
REMARK   31  A    between atoms: _72  and  _73
REMARK   32  A    between atoms: _77  and  _79
REMARK   33  A    between atoms: _79  and  _80
REMARK   34  A    between atoms: _79  and  _82
REMARK   35  A    between atoms: _82  and  _83
REMARK   36  A    between atoms: _83  and  _84
REMARK   37  A    between atoms: _87  and  _89
REMARK   38  A    between atoms: _89  and  _90
REMARK   39  A    between atoms: _89  and  _92
REMARK   40  A    between atoms: _92  and  _93
REMARK   41  A    between atoms: _96  and  _98
REMARK   42  A    between atoms: _98  and  _99
REMARK   43  A    between atoms: _98  and  _101
REMARK   44  A    between atoms: _101  and  _102
REMARK   45  A    between atoms: _107  and  _108
REMARK   46  A    between atoms: _110  and  _112
REMARK   47  A    between atoms: _112  and  _113
REMARK   48  A    between atoms: _112  and  _115
REMARK   49  A    between atoms: _115  and  _116
REMARK   50  A    between atoms: _119  and  _121
REMARK   51  A    between atoms: _121  and  _122
REMARK   52  A    between atoms: _121  and  _124
REMARK   53  A    between atoms: _124  and  _125
REMARK   54  A    between atoms: _128  and  _130
REMARK   55  A    between atoms: _130  and  _131
REMARK   56  A    between atoms: _130  and  _133
REMARK   57  A    between atoms: _136  and  _138
REMARK   58  A    between atoms: _138  and  _139
REMARK   59  A    between atoms: _141  and  _143
REMARK   60  A    between atoms: _143  and  _144
REMARK   61  A    between atoms: _143  and  _146
REMARK   62  A    between atoms: _146  and  _147
REMARK   63  A    between atoms: _147  and  _148
REMARK   64  A    between atoms: _148  and  _149
REMARK   65  A    between atoms: _158  and  _160
REMARK   66  A    between atoms: _160  and  _161
REMARK   67  A    between atoms: _160  and  _163
REMARK   68  A    between atoms: _163  and  _164
REMARK   69  A    between atoms: _167  and  _169
REMARK   70  A    between atoms: _169  and  _170
REMARK   71  A    between atoms: _169  and  _172
REMARK   72  A    between atoms: _172  and  _173
REMARK   73  A    between atoms: _178  and  _180
REMARK   74  A    between atoms: _180  and  _181
REMARK   75  A    between atoms: _180  and  _183
REMARK   76  A    between atoms: _183  and  _184
REMARK   77  A    between atoms: _184  and  _185
REMARK   78  A    between atoms: _188  and  _190
REMARK   79  A    between atoms: _190  and  _191
REMARK   80  A    between atoms: _190  and  _193
REMARK   81  A    between atoms: _193  and  _194
REMARK   82  A    between atoms: _194  and  _195
REMARK   83  A    between atoms: _195  and  _196
REMARK   84  A    between atoms: _196  and  _197
REMARK   85  A    between atoms: _201  and  _203
REMARK   86  A    between atoms: _203  and  _204
REMARK   87  A    between atoms: _206  and  _208
REMARK   88  A    between atoms: _208  and  _209
REMARK   89  A    between atoms: _208  and  _211
REMARK   90  A    between atoms: _212  and  _213
REMARK   91  A    between atoms: _216  and  _218
REMARK   92  A    between atoms: _218  and  _219
REMARK   93  A    between atoms: _218  and  _221
REMARK   94  A    between atoms: _221  and  _222
REMARK   95  A    between atoms: _222  and  _223
REMARK   96  A    between atoms: _228  and  _230
REMARK   97  A    between atoms: _230  and  _231
REMARK   98  A    between atoms: _230  and  _233
REMARK   99  A    between atoms: _233  and  _234
REMARK  100  A    between atoms: _237  and  _239
REMARK  101  A    between atoms: _239  and  _240
REMARK  102  A    between atoms: _239  and  _242
REMARK  103  A    between atoms: _245  and  _247
REMARK  104  A    between atoms: _247  and  _248
REMARK  105  A    between atoms: _247  and  _250
REMARK  106  A    between atoms: _250  and  _251
REMARK  107  A    between atoms: _253  and  _255
REMARK  108  A    between atoms: _255  and  _256
REMARK  109  A    between atoms: _255  and  _258
REMARK  110  A    between atoms: _258  and  _259
REMARK  111  A    between atoms: _261  and  _263
REMARK  112  A    between atoms: _263  and  _264
REMARK  113  A    between atoms: _263  and  _266
REMARK  114  A    between atoms: _266  and  _267
REMARK  115  A    between atoms: _273  and  _275
REMARK  116  A    between atoms: _275  and  _276
REMARK  117  A    between atoms: _275  and  _278
REMARK  118  A    between atoms: _278  and  _279
REMARK  119  A    between atoms: _282  and  _284
REMARK  120  A    between atoms: _284  and  _285
REMARK  121  A    between atoms: _284  and  _287
REMARK  122  A    between atoms: _287  and  _288
REMARK  123  A    between atoms: _291  and  _293
REMARK  124  A    between atoms: _293  and  _294
REMARK  125  A    between atoms: _293  and  _296
REMARK  126  A    between atoms: _296  and  _297
REMARK  127  A    between atoms: _300  and  _302
REMARK  128  A    between atoms: _302  and  _303
REMARK  129  A    between atoms: _302  and  _305
REMARK  130  A    between atoms: _305  and  _306
REMARK  131  A    between atoms: _306  and  _307
REMARK  132  A    between atoms: _309  and  _311
REMARK  133  A    between atoms: _311  and  _312
REMARK  134  A    between atoms: _311  and  _314
REMARK  135  A    between atoms: _314  and  _315
REMARK  136  A    between atoms: _321  and  _323
REMARK  137  A    between atoms: _323  and  _324
REMARK  138  A    between atoms: _323  and  _326
REMARK  139  A    between atoms: _328  and  _330
REMARK  140  A    between atoms: _330  and  _331
REMARK  141  A    between atoms: _334  and  _336
REMARK  142  A    between atoms: _336  and  _337
REMARK  143  A    between atoms: _339  and  _341
REMARK  144  A    between atoms: _341  and  _342
REMARK  145  A    between atoms: _341  and  _344
REMARK  146  A    between atoms: _344  and  _345
REMARK  147  A    between atoms: _345  and  _346
REMARK  148  A    between atoms: _349  and  _351
REMARK  149  A    between atoms: _351  and  _352
REMARK  150  A    between atoms: _351  and  _354
REMARK  151  A    between atoms: _354  and  _355
REMARK  152  A    between atoms: _358  and  _360
REMARK  153  A    between atoms: _360  and  _361
REMARK  154  A    between atoms: _364  and  _366
REMARK  155  A    between atoms: _366  and  _367
REMARK  156  A    between atoms: _366  and  _369
REMARK  157  A    between atoms: _369  and  _370
REMARK  158  A    between atoms: _370  and  _493
REMARK  159  A    between atoms: _371  and  _373
REMARK  160  A    between atoms: _373  and  _374
REMARK  161  A    between atoms: _373  and  _376
REMARK  162  A    between atoms: _376  and  _377
REMARK  163  A    between atoms: _377  and  _378
REMARK  164  A    between atoms: _383  and  _385
REMARK  165  A    between atoms: _385  and  _386
REMARK  166  A    between atoms: _388  and  _390
REMARK  167  A    between atoms: _390  and  _391
REMARK  168  A    between atoms: _390  and  _393
REMARK  169  A    between atoms: _393  and  _394
REMARK  170  A    between atoms: _397  and  _399
REMARK  171  A    between atoms: _399  and  _400
REMARK  172  A    between atoms: _399  and  _402
REMARK  173  A    between atoms: _402  and  _403
REMARK  174  A    between atoms: _405  and  _407
REMARK  175  A    between atoms: _407  and  _408
REMARK  176  A    between atoms: _410  and  _412
REMARK  177  A    between atoms: _412  and  _413
REMARK  178  A    between atoms: _415  and  _417
REMARK  179  A    between atoms: _417  and  _418
REMARK  180  A    between atoms: _417  and  _420
REMARK  181  A    between atoms: _420  and  _421
REMARK  182  A    between atoms: _426  and  _428
REMARK  183  A    between atoms: _428  and  _429
REMARK  184  A    between atoms: _428  and  _431
REMARK  185  A    between atoms: _431  and  _432
REMARK  186  A    between atoms: _435  and  _437
REMARK  187  A    between atoms: _437  and  _438
REMARK  188  A    between atoms: _437  and  _440
REMARK  189  A    between atoms: _443  and  _445
REMARK  190  A    between atoms: _445  and  _446
REMARK  191  A    between atoms: _445  and  _448
REMARK  192  A    between atoms: _448  and  _449
REMARK  193  A    between atoms: _451  and  _453
REMARK  194  A    between atoms: _453  and  _454
REMARK  195  A    between atoms: _453  and  _456
REMARK  196  A    between atoms: _456  and  _457
REMARK  197  A    between atoms: _467  and  _469
REMARK  198  A    between atoms: _469  and  _470
REMARK  199  A    between atoms: _472  and  _474
REMARK  200  A    between atoms: _474  and  _475
REMARK  201  A    between atoms: _474  and  _477
REMARK  202  A    between atoms: _477  and  _478
REMARK  203  A    between atoms: _478  and  _479
REMARK  204  A    between atoms: _482  and  _484
REMARK  205  A    between atoms: _484  and  _485
REMARK  206  A    between atoms: _487  and  _489
REMARK  207  A    between atoms: _489  and  _490
REMARK  208  A    between atoms: _489  and  _492
REMARK  209  A    between atoms: _492  and  _493
REMARK  210  A    between atoms: _494  and  _496
REMARK  211  A    between atoms: _496  and  _497
REMARK  212  A    between atoms: _500  and  _502
REMARK  213  A    between atoms: _502  and  _503
REMARK  214  A    between atoms: _502  and  _505
REMARK  215  A    between atoms: _505  and  _506
REMARK  216  A    between atoms: _506  and  _507
REMARK  217  A    between atoms: _507  and  _508
REMARK  218  A    between atoms: _517  and  _519
REMARK  219  A    between atoms: _519  and  _520
REMARK  220  A    between atoms: _519  and  _522
REMARK  221  A    between atoms: _522  and  _523
REMARK  222  A    between atoms: _523  and  _524
REMARK  223  A    between atoms: _524  and  _525
REMARK  224  A    between atoms: _525  and  _526
REMARK  225  A    between atoms: _530  and  _532
REMARK  226  A    between atoms: _532  and  _533
REMARK  227  A    between atoms: _532  and  _535
REMARK  228  A    between atoms: _535  and  _536
REMARK  229  A    between atoms: _541  and  _542
REMARK  230  A    between atoms: _544  and  _546
REMARK  231  A    between atoms: _546  and  _547
REMARK  232  A    between atoms: _549  and  _551
REMARK  233  A    between atoms: _551  and  _552
REMARK  234  A    between atoms: _551  and  _554
REMARK  235  A    between atoms: _554  and  _555
REMARK  236  A    between atoms: _558  and  _560
REMARK  237  A    between atoms: _560  and  _561
REMARK  238  A    between atoms: _560  and  _563
REMARK  239  A    between atoms: _563  and  _564
REMARK  240  A    between atoms: _569  and  _570
REMARK  241  A    between atoms: _572  and  _574
REMARK  242  A    between atoms: _574  and  _575
REMARK  243  A    between atoms: _574  and  _577
REMARK  244  A    between atoms: _577  and  _578
REMARK                            x       y       z     vdW  Elec       q    Type
REMARK                         _______ _______ _______ _____ _____    ______ ____
ROOT
ATOM      1  O   HOH     1      10.791  66.743  11.200  0.00  0.00    +0.000 OA
ENDROOT
TORSDOF 0
REMARK  Name = ../refined-set-2016/2xbv/2xbv_pocket.pdb
REMARK  244 active torsions:
REMARK  status: ('A' for Active; 'I' for Inactive)
REMARK    1  A    between atoms: _1  and  _5
REMARK    2  A    between atoms: _5  and  _6
REMARK    3  A    between atoms: _5  and  _8
REMARK    4  A    between atoms: _8  and  _9
REMARK    5  A    between atoms: _12  and  _14
REMARK    6  A    between atoms: _14  and  _15
REMARK    7  A    between atoms: _14  and  _17
REMARK    8  A    between atoms: _20  and  _22
REMARK    9  A    between atoms: _22  and  _23
REMARK   10  A    between atoms: _22  and  _25
REMARK   11  A    between atoms: _25  and  _26
REMARK   12  A    between atoms: _31  and  _33
REMARK   13  A    between atoms: _33  and  _34
REMARK   14  A    between atoms: _33  and  _36
REMARK   15  A    between atoms: _36  and  _37
REMARK   16  A    between atoms: _37  and  _38
REMARK   17  A    between atoms: _43  and  _45
REMARK   18  A    between atoms: _45  and  _46
REMARK   19  A    between atoms: _45  and  _48
REMARK   20  A    between atoms: _48  and  _49
REMARK   21  A    between atoms: _55  and  _57
REMARK   22  A    between atoms: _57  and  _58
REMARK   23  A    between atoms: _57  and  _60
REMARK   24  A    between atoms: _60  and  _61
REMARK   25  A    between atoms: _64  and  _66
REMARK   26  A    between atoms: _66  and  _67
REMARK   27  A    between atoms: _66  and  _69
REMARK   28  A    between atoms: _69  and  _70
REMARK   29  A    between atoms: _70  and  _71
REMARK   30  A    between atoms: _71  and  _72
REMARK   31  A    between atoms: _72  and  _73
REMARK   32  A    between atoms: _77  and  _79
REMARK   33  A    between atoms: _79  and  _80
REMARK   34  A    between atoms: _79  and  _82
REMARK   35  A    between atoms: _82  and  _83
REMARK   36  A    between atoms: _83  and  _84
REMARK   37  A    between atoms: _87  and  _89
REMARK   38  A    between atoms: _89  and  _90
REMARK   39  A    between atoms: _89  and  _92
REMARK   40  A    between atoms: _92  and  _93
REMARK   41  A    between atoms: _96  and  _98
REMARK   42  A    between atoms: _98  and  _99
REMARK   43  A    between atoms: _98  and  _101
REMARK   44  A    between atoms: _101  and  _102
REMARK   45  A    between atoms: _107  and  _108
REMARK   46  A    between atoms: _110  and  _112
REMARK   47  A    between atoms: _112  and  _113
REMARK   48  A    between atoms: _112  and  _115
REMARK   49  A    between atoms: _115  and  _116
REMARK   50  A    between atoms: _119  and  _121
REMARK   51  A    between atoms: _121  and  _122
REMARK   52  A    between atoms: _121  and  _124
REMARK   53  A    between atoms: _124  and  _125
REMARK   54  A    between atoms: _128  and  _130
REMARK   55  A    between atoms: _130  and  _131
REMARK   56  A    between atoms: _130  and  _133
REMARK   57  A    between atoms: _136  and  _138
REMARK   58  A    between atoms: _138  and  _139
REMARK   59  A    between atoms: _141  and  _143
REMARK   60  A    between atoms: _143  and  _144
REMARK   61  A    between atoms: _143  and  _146
REMARK   62  A    between atoms: _146  and  _147
REMARK   63  A    between atoms: _147  and  _148
REMARK   64  A    between atoms: _148  and  _149
REMARK   65  A    between atoms: _158  and  _160
REMARK   66  A    between atoms: _160  and  _161
REMARK   67  A    between atoms: _160  and  _163
REMARK   68  A    between atoms: _163  and  _164
REMARK   69  A    between atoms: _167  and  _169
REMARK   70  A    between atoms: _169  and  _170
REMARK   71  A    between atoms: _169  and  _172
REMARK   72  A    between atoms: _172  and  _173
REMARK   73  A    between atoms: _178  and  _180
REMARK   74  A    between atoms: _180  and  _181
REMARK   75  A    between atoms: _180  and  _183
REMARK   76  A    between atoms: _183  and  _184
REMARK   77  A    between atoms: _184  and  _185
REMARK   78  A    between atoms: _188  and  _190
REMARK   79  A    between atoms: _190  and  _191
REMARK   80  A    between atoms: _190  and  _193
REMARK   81  A    between atoms: _193  and  _194
REMARK   82  A    between atoms: _194  and  _195
REMARK   83  A    between atoms: _195  and  _196
REMARK   84  A    between atoms: _196  and  _197
REMARK   85  A    between atoms: _201  and  _203
REMARK   86  A    between atoms: _203  and  _204
REMARK   87  A    between atoms: _206  and  _208
REMARK   88  A    between atoms: _208  and  _209
REMARK   89  A    between atoms: _208  and  _211
REMARK   90  A    between atoms: _212  and  _213
REMARK   91  A    between atoms: _216  and  _218
REMARK   92  A    between atoms: _218  and  _219
REMARK   93  A    between atoms: _218  and  _221
REMARK   94  A    between atoms: _221  and  _222
REMARK   95  A    between atoms: _222  and  _223
REMARK   96  A    between atoms: _228  and  _230
REMARK   97  A    between atoms: _230  and  _231
REMARK   98  A    between atoms: _230  and  _233
REMARK   99  A    between atoms: _233  and  _234
REMARK  100  A    between atoms: _237  and  _239
REMARK  101  A    between atoms: _239  and  _240
REMARK  102  A    between atoms: _239  and  _242
REMARK  103  A    between atoms: _245  and  _247
REMARK  104  A    between atoms: _247  and  _248
REMARK  105  A    between atoms: _247  and  _250
REMARK  106  A    between atoms: _250  and  _251
REMARK  107  A    between atoms: _253  and  _255
REMARK  108  A    between atoms: _255  and  _256
REMARK  109  A    between atoms: _255  and  _258
REMARK  110  A    between atoms: _258  and  _259
REMARK  111  A    between atoms: _261  and  _263
REMARK  112  A    between atoms: _263  and  _264
REMARK  113  A    between atoms: _263  and  _266
REMARK  114  A    between atoms: _266  and  _267
REMARK  115  A    between atoms: _273  and  _275
REMARK  116  A    between atoms: _275  and  _276
REMARK  117  A    between atoms: _275  and  _278
REMARK  118  A    between atoms: _278  and  _279
REMARK  119  A    between atoms: _282  and  _284
REMARK  120  A    between atoms: _284  and  _285
REMARK  121  A    between atoms: _284  and  _287
REMARK  122  A    between atoms: _287  and  _288
REMARK  123  A    between atoms: _291  and  _293
REMARK  124  A    between atoms: _293  and  _294
REMARK  125  A    between atoms: _293  and  _296
REMARK  126  A    between atoms: _296  and  _297
REMARK  127  A    between atoms: _300  and  _302
REMARK  128  A    between atoms: _302  and  _303
REMARK  129  A    between atoms: _302  and  _305
REMARK  130  A    between atoms: _305  and  _306
REMARK  131  A    between atoms: _306  and  _307
REMARK  132  A    between atoms: _309  and  _311
REMARK  133  A    between atoms: _311  and  _312
REMARK  134  A    between atoms: _311  and  _314
REMARK  135  A    between atoms: _314  and  _315
REMARK  136  A    between atoms: _321  and  _323
REMARK  137  A    between atoms: _323  and  _324
REMARK  138  A    between atoms: _323  and  _326
REMARK  139  A    between atoms: _328  and  _330
REMARK  140  A    between atoms: _330  and  _331
REMARK  141  A    between atoms: _334  and  _336
REMARK  142  A    between atoms: _336  and  _337
REMARK  143  A    between atoms: _339  and  _341
REMARK  144  A    between atoms: _341  and  _342
REMARK  145  A    between atoms: _341  and  _344
REMARK  146  A    between atoms: _344  and  _345
REMARK  147  A    between atoms: _345  and  _346
REMARK  148  A    between atoms: _349  and  _351
REMARK  149  A    between atoms: _351  and  _352
REMARK  150  A    between atoms: _351  and  _354
REMARK  151  A    between atoms: _354  and  _355
REMARK  152  A    between atoms: _358  and  _360
REMARK  153  A    between atoms: _360  and  _361
REMARK  154  A    between atoms: _364  and  _366
REMARK  155  A    between atoms: _366  and  _367
REMARK  156  A    between atoms: _366  and  _369
REMARK  157  A    between atoms: _369  and  _370
REMARK  158  A    between atoms: _370  and  _493
REMARK  159  A    between atoms: _371  and  _373
REMARK  160  A    between atoms: _373  and  _374
REMARK  161  A    between atoms: _373  and  _376
REMARK  162  A    between atoms: _376  and  _377
REMARK  163  A    between atoms: _377  and  _378
REMARK  164  A    between atoms: _383  and  _385
REMARK  165  A    between atoms: _385  and  _386
REMARK  166  A    between atoms: _388  and  _390
REMARK  167  A    between atoms: _390  and  _391
REMARK  168  A    between atoms: _390  and  _393
REMARK  169  A    between atoms: _393  and  _394
REMARK  170  A    between atoms: _397  and  _399
REMARK  171  A    between atoms: _399  and  _400
REMARK  172  A    between atoms: _399  and  _402
REMARK  173  A    between atoms: _402  and  _403
REMARK  174  A    between atoms: _405  and  _407
REMARK  175  A    between atoms: _407  and  _408
REMARK  176  A    between atoms: _410  and  _412
REMARK  177  A    between atoms: _412  and  _413
REMARK  178  A    between atoms: _415  and  _417
REMARK  179  A    between atoms: _417  and  _418
REMARK  180  A    between atoms: _417  and  _420
REMARK  181  A    between atoms: _420  and  _421
REMARK  182  A    between atoms: _426  and  _428
REMARK  183  A    between atoms: _428  and  _429
REMARK  184  A    between atoms: _428  and  _431
REMARK  185  A    between atoms: _431  and  _432
REMARK  186  A    between atoms: _435  and  _437
REMARK  187  A    between atoms: _437  and  _438
REMARK  188  A    between atoms: _437  and  _440
REMARK  189  A    between atoms: _443  and  _445
REMARK  190  A    between atoms: _445  and  _446
REMARK  191  A    between atoms: _445  and  _448
REMARK  192  A    between atoms: _448  and  _449
REMARK  193  A    between atoms: _451  and  _453
REMARK  194  A    between atoms: _453  and  _454
REMARK  195  A    between atoms: _453  and  _456
REMARK  196  A    between atoms: _456  and  _457
REMARK  197  A    between atoms: _467  and  _469
REMARK  198  A    between atoms: _469  and  _470
REMARK  199  A    between atoms: _472  and  _474
REMARK  200  A    between atoms: _474  and  _475
REMARK  201  A    between atoms: _474  and  _477
REMARK  202  A    between atoms: _477  and  _478
REMARK  203  A    between atoms: _478  and  _479
REMARK  204  A    between atoms: _482  and  _484
REMARK  205  A    between atoms: _484  and  _485
REMARK  206  A    between atoms: _487  and  _489
REMARK  207  A    between atoms: _489  and  _490
REMARK  208  A    between atoms: _489  and  _492
REMARK  209  A    between atoms: _492  and  _493
REMARK  210  A    between atoms: _494  and  _496
REMARK  211  A    between atoms: _496  and  _497
REMARK  212  A    between atoms: _500  and  _502
REMARK  213  A    between atoms: _502  and  _503
REMARK  214  A    between atoms: _502  and  _505
REMARK  215  A    between atoms: _505  and  _506
REMARK  216  A    between atoms: _506  and  _507
REMARK  217  A    between atoms: _507  and  _508
REMARK  218  A    between atoms: _517  and  _519
REMARK  219  A    between atoms: _519  and  _520
REMARK  220  A    between atoms: _519  and  _522
REMARK  221  A    between atoms: _522  and  _523
REMARK  222  A    between atoms: _523  and  _524
REMARK  223  A    between atoms: _524  and  _525
REMARK  224  A    between atoms: _525  and  _526
REMARK  225  A    between atoms: _530  and  _532
REMARK  226  A    between atoms: _532  and  _533
REMARK  227  A    between atoms: _532  and  _535
REMARK  228  A    between atoms: _535  and  _536
REMARK  229  A    between atoms: _541  and  _542
REMARK  230  A    between atoms: _544  and  _546
REMARK  231  A    between atoms: _546  and  _547
REMARK  232  A    between atoms: _549  and  _551
REMARK  233  A    between atoms: _551  and  _552
REMARK  234  A    between atoms: _551  and  _554
REMARK  235  A    between atoms: _554  and  _555
REMARK  236  A    between atoms: _558  and  _560
REMARK  237  A    between atoms: _560  and  _561
REMARK  238  A    between atoms: _560  and  _563
REMARK  239  A    between atoms: _563  and  _564
REMARK  240  A    between atoms: _569  and  _570
REMARK  241  A    between atoms: _572  and  _574
REMARK  242  A    between atoms: _574  and  _575
REMARK  243  A    between atoms: _574  and  _577
REMARK  244  A    between atoms: _577  and  _578
REMARK                            x       y       z     vdW  Elec       q    Type
REMARK                         _______ _______ _______ _____ _____    ______ ____
ROOT
ATOM      1  O   HOH     1      13.678  65.978  13.443  0.00  0.00    +0.000 OA
ENDROOT
TORSDOF 0
REMARK  Name = ../refined-set-2016/2xbv/2xbv_pocket.pdb
REMARK  244 active torsions:
REMARK  status: ('A' for Active; 'I' for Inactive)
REMARK    1  A    between atoms: _1  and  _5
REMARK    2  A    between atoms: _5  and  _6
REMARK    3  A    between atoms: _5  and  _8
REMARK    4  A    between atoms: _8  and  _9
REMARK    5  A    between atoms: _12  and  _14
REMARK    6  A    between atoms: _14  and  _15
REMARK    7  A    between atoms: _14  and  _17
REMARK    8  A    between atoms: _20  and  _22
REMARK    9  A    between atoms: _22  and  _23
REMARK   10  A    between atoms: _22  and  _25
REMARK   11  A    between atoms: _25  and  _26
REMARK   12  A    between atoms: _31  and  _33
REMARK   13  A    between atoms: _33  and  _34
REMARK   14  A    between atoms: _33  and  _36
REMARK   15  A    between atoms: _36  and  _37
REMARK   16  A    between atoms: _37  and  _38
REMARK   17  A    between atoms: _43  and  _45
REMARK   18  A    between atoms: _45  and  _46
REMARK   19  A    between atoms: _45  and  _48
REMARK   20  A    between atoms: _48  and  _49
REMARK   21  A    between atoms: _55  and  _57
REMARK   22  A    between atoms: _57  and  _58
REMARK   23  A    between atoms: _57  and  _60
REMARK   24  A    between atoms: _60  and  _61
REMARK   25  A    between atoms: _64  and  _66
REMARK   26  A    between atoms: _66  and  _67
REMARK   27  A    between atoms: _66  and  _69
REMARK   28  A    between atoms: _69  and  _70
REMARK   29  A    between atoms: _70  and  _71
REMARK   30  A    between atoms: _71  and  _72
REMARK   31  A    between atoms: _72  and  _73
REMARK   32  A    between atoms: _77  and  _79
REMARK   33  A    between atoms: _79  and  _80
REMARK   34  A    between atoms: _79  and  _82
REMARK   35  A    between atoms: _82  and  _83
REMARK   36  A    between atoms: _83  and  _84
REMARK   37  A    between atoms: _87  and  _89
REMARK   38  A    between atoms: _89  and  _90
REMARK   39  A    between atoms: _89  and  _92
REMARK   40  A    between atoms: _92  and  _93
REMARK   41  A    between atoms: _96  and  _98
REMARK   42  A    between atoms: _98  and  _99
REMARK   43  A    between atoms: _98  and  _101
REMARK   44  A    between atoms: _101  and  _102
REMARK   45  A    between atoms: _107  and  _108
REMARK   46  A    between atoms: _110  and  _112
REMARK   47  A    between atoms: _112  and  _113
REMARK   48  A    between atoms: _112  and  _115
REMARK   49  A    between atoms: _115  and  _116
REMARK   50  A    between atoms: _119  and  _121
REMARK   51  A    between atoms: _121  and  _122
REMARK   52  A    between atoms: _121  and  _124
REMARK   53  A    between atoms: _124  and  _125
REMARK   54  A    between atoms: _128  and  _130
REMARK   55  A    between atoms: _130  and  _131
REMARK   56  A    between atoms: _130  and  _133
REMARK   57  A    between atoms: _136  and  _138
REMARK   58  A    between atoms: _138  and  _139
REMARK   59  A    between atoms: _141  and  _143
REMARK   60  A    between atoms: _143  and  _144
REMARK   61  A    between atoms: _143  and  _146
REMARK   62  A    between atoms: _146  and  _147
REMARK   63  A    between atoms: _147  and  _148
REMARK   64  A    between atoms: _148  and  _149
REMARK   65  A    between atoms: _158  and  _160
REMARK   66  A    between atoms: _160  and  _161
REMARK   67  A    between atoms: _160  and  _163
REMARK   68  A    between atoms: _163  and  _164
REMARK   69  A    between atoms: _167  and  _169
REMARK   70  A    between atoms: _169  and  _170
REMARK   71  A    between atoms: _169  and  _172
REMARK   72  A    between atoms: _172  and  _173
REMARK   73  A    between atoms: _178  and  _180
REMARK   74  A    between atoms: _180  and  _181
REMARK   75  A    between atoms: _180  and  _183
REMARK   76  A    between atoms: _183  and  _184
REMARK   77  A    between atoms: _184  and  _185
REMARK   78  A    between atoms: _188  and  _190
REMARK   79  A    between atoms: _190  and  _191
REMARK   80  A    between atoms: _190  and  _193
REMARK   81  A    between atoms: _193  and  _194
REMARK   82  A    between atoms: _194  and  _195
REMARK   83  A    between atoms: _195  and  _196
REMARK   84  A    between atoms: _196  and  _197
REMARK   85  A    between atoms: _201  and  _203
REMARK   86  A    between atoms: _203  and  _204
REMARK   87  A    between atoms: _206  and  _208
REMARK   88  A    between atoms: _208  and  _209
REMARK   89  A    between atoms: _208  and  _211
REMARK   90  A    between atoms: _212  and  _213
REMARK   91  A    between atoms: _216  and  _218
REMARK   92  A    between atoms: _218  and  _219
REMARK   93  A    between atoms: _218  and  _221
REMARK   94  A    between atoms: _221  and  _222
REMARK   95  A    between atoms: _222  and  _223
REMARK   96  A    between atoms: _228  and  _230
REMARK   97  A    between atoms: _230  and  _231
REMARK   98  A    between atoms: _230  and  _233
REMARK   99  A    between atoms: _233  and  _234
REMARK  100  A    between atoms: _237  and  _239
REMARK  101  A    between atoms: _239  and  _240
REMARK  102  A    between atoms: _239  and  _242
REMARK  103  A    between atoms: _245  and  _247
REMARK  104  A    between atoms: _247  and  _248
REMARK  105  A    between atoms: _247  and  _250
REMARK  106  A    between atoms: _250  and  _251
REMARK  107  A    between atoms: _253  and  _255
REMARK  108  A    between atoms: _255  and  _256
REMARK  109  A    between atoms: _255  and  _258
REMARK  110  A    between atoms: _258  and  _259
REMARK  111  A    between atoms: _261  and  _263
REMARK  112  A    between atoms: _263  and  _264
REMARK  113  A    between atoms: _263  and  _266
REMARK  114  A    between atoms: _266  and  _267
REMARK  115  A    between atoms: _273  and  _275
REMARK  116  A    between atoms: _275  and  _276
REMARK  117  A    between atoms: _275  and  _278
REMARK  118  A    between atoms: _278  and  _279
REMARK  119  A    between atoms: _282  and  _284
REMARK  120  A    between atoms: _284  and  _285
REMARK  121  A    between atoms: _284  and  _287
REMARK  122  A    between atoms: _287  and  _288
REMARK  123  A    between atoms: _291  and  _293
REMARK  124  A    between atoms: _293  and  _294
REMARK  125  A    between atoms: _293  and  _296
REMARK  126  A    between atoms: _296  and  _297
REMARK  127  A    between atoms: _300  and  _302
REMARK  128  A    between atoms: _302  and  _303
REMARK  129  A    between atoms: _302  and  _305
REMARK  130  A    between atoms: _305  and  _306
REMARK  131  A    between atoms: _306  and  _307
REMARK  132  A    between atoms: _309  and  _311
REMARK  133  A    between atoms: _311  and  _312
REMARK  134  A    between atoms: _311  and  _314
REMARK  135  A    between atoms: _314  and  _315
REMARK  136  A    between atoms: _321  and  _323
REMARK  137  A    between atoms: _323  and  _324
REMARK  138  A    between atoms: _323  and  _326
REMARK  139  A    between atoms: _328  and  _330
REMARK  140  A    between atoms: _330  and  _331
REMARK  141  A    between atoms: _334  and  _336
REMARK  142  A    between atoms: _336  and  _337
REMARK  143  A    between atoms: _339  and  _341
REMARK  144  A    between atoms: _341  and  _342
REMARK  145  A    between atoms: _341  and  _344
REMARK  146  A    between atoms: _344  and  _345
REMARK  147  A    between atoms: _345  and  _346
REMARK  148  A    between atoms: _349  and  _351
REMARK  149  A    between atoms: _351  and  _352
REMARK  150  A    between atoms: _351  and  _354
REMARK  151  A    between atoms: _354  and  _355
REMARK  152  A    between atoms: _358  and  _360
REMARK  153  A    between atoms: _360  and  _361
REMARK  154  A    between atoms: _364  and  _366
REMARK  155  A    between atoms: _366  and  _367
REMARK  156  A    between atoms: _366  and  _369
REMARK  157  A    between atoms: _369  and  _370
REMARK  158  A    between atoms: _370  and  _493
REMARK  159  A    between atoms: _371  and  _373
REMARK  160  A    between atoms: _373  and  _374
REMARK  161  A    between atoms: _373  and  _376
REMARK  162  A    between atoms: _376  and  _377
REMARK  163  A    between atoms: _377  and  _378
REMARK  164  A    between atoms: _383  and  _385
REMARK  165  A    between atoms: _385  and  _386
REMARK  166  A    between atoms: _388  and  _390
REMARK  167  A    between atoms: _390  and  _391
REMARK  168  A    between atoms: _390  and  _393
REMARK  169  A    between atoms: _393  and  _394
REMARK  170  A    between atoms: _397  and  _399
REMARK  171  A    between atoms: _399  and  _400
REMARK  172  A    between atoms: _399  and  _402
REMARK  173  A    between atoms: _402  and  _403
REMARK  174  A    between atoms: _405  and  _407
REMARK  175  A    between atoms: _407  and  _408
REMARK  176  A    between atoms: _410  and  _412
REMARK  177  A    between atoms: _412  and  _413
REMARK  178  A    between atoms: _415  and  _417
REMARK  179  A    between atoms: _417  and  _418
REMARK  180  A    between atoms: _417  and  _420
REMARK  181  A    between atoms: _420  and  _421
REMARK  182  A    between atoms: _426  and  _428
REMARK  183  A    between atoms: _428  and  _429
REMARK  184  A    between atoms: _428  and  _431
REMARK  185  A    between atoms: _431  and  _432
REMARK  186  A    between atoms: _435  and  _437
REMARK  187  A    between atoms: _437  and  _438
REMARK  188  A    between atoms: _437  and  _440
REMARK  189  A    between atoms: _443  and  _445
REMARK  190  A    between atoms: _445  and  _446
REMARK  191  A    between atoms: _445  and  _448
REMARK  192  A    between atoms: _448  and  _449
REMARK  193  A    between atoms: _451  and  _453
REMARK  194  A    between atoms: _453  and  _454
REMARK  195  A    between atoms: _453  and  _456
REMARK  196  A    between atoms: _456  and  _457
REMARK  197  A    between atoms: _467  and  _469
REMARK  198  A    between atoms: _469  and  _470
REMARK  199  A    between atoms: _472  and  _474
REMARK  200  A    between atoms: _474  and  _475
REMARK  201  A    between atoms: _474  and  _477
REMARK  202  A    between atoms: _477  and  _478
REMARK  203  A    between atoms: _478  and  _479
REMARK  204  A    between atoms: _482  and  _484
REMARK  205  A    between atoms: _484  and  _485
REMARK  206  A    between atoms: _487  and  _489
REMARK  207  A    between atoms: _489  and  _490
REMARK  208  A    between atoms: _489  and  _492
REMARK  209  A    between atoms: _492  and  _493
REMARK  210  A    between atoms: _494  and  _496
REMARK  211  A    between atoms: _496  and  _497
REMARK  212  A    between atoms: _500  and  _502
REMARK  213  A    between atoms: _502  and  _503
REMARK  214  A    between atoms: _502  and  _505
REMARK  215  A    between atoms: _505  and  _506
REMARK  216  A    between atoms: _506  and  _507
REMARK  217  A    between atoms: _507  and  _508
REMARK  218  A    between atoms: _517  and  _519
REMARK  219  A    between atoms: _519  and  _520
REMARK  220  A    between atoms: _519  and  _522
REMARK  221  A    between atoms: _522  and  _523
REMARK  222  A    between atoms: _523  and  _524
REMARK  223  A    between atoms: _524  and  _525
REMARK  224  A    between atoms: _525  and  _526
REMARK  225  A    between atoms: _530  and  _532
REMARK  226  A    between atoms: _532  and  _533
REMARK  227  A    between atoms: _532  and  _535
REMARK  228  A    between atoms: _535  and  _536
REMARK  229  A    between atoms: _541  and  _542
REMARK  230  A    between atoms: _544  and  _546
REMARK  231  A    between atoms: _546  and  _547
REMARK  232  A    between atoms: _549  and  _551
REMARK  233  A    between atoms: _551  and  _552
REMARK  234  A    between atoms: _551  and  _554
REMARK  235  A    between atoms: _554  and  _555
REMARK  236  A    between atoms: _558  and  _560
REMARK  237  A    between atoms: _560  and  _561
REMARK  238  A    between atoms: _560  and  _563
REMARK  239  A    between atoms: _563  and  _564
REMARK  240  A    between atoms: _569  and  _570
REMARK  241  A    between atoms: _572  and  _574
REMARK  242  A    between atoms: _574  and  _575
REMARK  243  A    between atoms: _574  and  _577
REMARK  244  A    between atoms: _577  and  _578
REMARK                            x       y       z     vdW  Elec       q    Type
REMARK                         _______ _______ _______ _____ _____    ______ ____
ROOT
ATOM      1  O   HOH     1       9.872  62.148  10.466  0.00  0.00    +0.000 OA
ENDROOT
TORSDOF 0
REMARK  Name = ../refined-set-2016/2xbv/2xbv_pocket.pdb
REMARK  244 active torsions:
REMARK  status: ('A' for Active; 'I' for Inactive)
REMARK    1  A    between atoms: _1  and  _5
REMARK    2  A    between atoms: _5  and  _6
REMARK    3  A    between atoms: _5  and  _8
REMARK    4  A    between atoms: _8  and  _9
REMARK    5  A    between atoms: _12  and  _14
REMARK    6  A    between atoms: _14  and  _15
REMARK    7  A    between atoms: _14  and  _17
REMARK    8  A    between atoms: _20  and  _22
REMARK    9  A    between atoms: _22  and  _23
REMARK   10  A    between atoms: _22  and  _25
REMARK   11  A    between atoms: _25  and  _26
REMARK   12  A    between atoms: _31  and  _33
REMARK   13  A    between atoms: _33  and  _34
REMARK   14  A    between atoms: _33  and  _36
REMARK   15  A    between atoms: _36  and  _37
REMARK   16  A    between atoms: _37  and  _38
REMARK   17  A    between atoms: _43  and  _45
REMARK   18  A    between atoms: _45  and  _46
REMARK   19  A    between atoms: _45  and  _48
REMARK   20  A    between atoms: _48  and  _49
REMARK   21  A    between atoms: _55  and  _57
REMARK   22  A    between atoms: _57  and  _58
REMARK   23  A    between atoms: _57  and  _60
REMARK   24  A    between atoms: _60  and  _61
REMARK   25  A    between atoms: _64  and  _66
REMARK   26  A    between atoms: _66  and  _67
REMARK   27  A    between atoms: _66  and  _69
REMARK   28  A    between atoms: _69  and  _70
REMARK   29  A    between atoms: _70  and  _71
REMARK   30  A    between atoms: _71  and  _72
REMARK   31  A    between atoms: _72  and  _73
REMARK   32  A    between atoms: _77  and  _79
REMARK   33  A    between atoms: _79  and  _80
REMARK   34  A    between atoms: _79  and  _82
REMARK   35  A    between atoms: _82  and  _83
REMARK   36  A    between atoms: _83  and  _84
REMARK   37  A    between atoms: _87  and  _89
REMARK   38  A    between atoms: _89  and  _90
REMARK   39  A    between atoms: _89  and  _92
REMARK   40  A    between atoms: _92  and  _93
REMARK   41  A    between atoms: _96  and  _98
REMARK   42  A    between atoms: _98  and  _99
REMARK   43  A    between atoms: _98  and  _101
REMARK   44  A    between atoms: _101  and  _102
REMARK   45  A    between atoms: _107  and  _108
REMARK   46  A    between atoms: _110  and  _112
REMARK   47  A    between atoms: _112  and  _113
REMARK   48  A    between atoms: _112  and  _115
REMARK   49  A    between atoms: _115  and  _116
REMARK   50  A    between atoms: _119  and  _121
REMARK   51  A    between atoms: _121  and  _122
REMARK   52  A    between atoms: _121  and  _124
REMARK   53  A    between atoms: _124  and  _125
REMARK   54  A    between atoms: _128  and  _130
REMARK   55  A    between atoms: _130  and  _131
REMARK   56  A    between atoms: _130  and  _133
REMARK   57  A    between atoms: _136  and  _138
REMARK   58  A    between atoms: _138  and  _139
REMARK   59  A    between atoms: _141  and  _143
REMARK   60  A    between atoms: _143  and  _144
REMARK   61  A    between atoms: _143  and  _146
REMARK   62  A    between atoms: _146  and  _147
REMARK   63  A    between atoms: _147  and  _148
REMARK   64  A    between atoms: _148  and  _149
REMARK   65  A    between atoms: _158  and  _160
REMARK   66  A    between atoms: _160  and  _161
REMARK   67  A    between atoms: _160  and  _163
REMARK   68  A    between atoms: _163  and  _164
REMARK   69  A    between atoms: _167  and  _169
REMARK   70  A    between atoms: _169  and  _170
REMARK   71  A    between atoms: _169  and  _172
REMARK   72  A    between atoms: _172  and  _173
REMARK   73  A    between atoms: _178  and  _180
REMARK   74  A    between atoms: _180  and  _181
REMARK   75  A    between atoms: _180  and  _183
REMARK   76  A    between atoms: _183  and  _184
REMARK   77  A    between atoms: _184  and  _185
REMARK   78  A    between atoms: _188  and  _190
REMARK   79  A    between atoms: _190  and  _191
REMARK   80  A    between atoms: _190  and  _193
REMARK   81  A    between atoms: _193  and  _194
REMARK   82  A    between atoms: _194  and  _195
REMARK   83  A    between atoms: _195  and  _196
REMARK   84  A    between atoms: _196  and  _197
REMARK   85  A    between atoms: _201  and  _203
REMARK   86  A    between atoms: _203  and  _204
REMARK   87  A    between atoms: _206  and  _208
REMARK   88  A    between atoms: _208  and  _209
REMARK   89  A    between atoms: _208  and  _211
REMARK   90  A    between atoms: _212  and  _213
REMARK   91  A    between atoms: _216  and  _218
REMARK   92  A    between atoms: _218  and  _219
REMARK   93  A    between atoms: _218  and  _221
REMARK   94  A    between atoms: _221  and  _222
REMARK   95  A    between atoms: _222  and  _223
REMARK   96  A    between atoms: _228  and  _230
REMARK   97  A    between atoms: _230  and  _231
REMARK   98  A    between atoms: _230  and  _233
REMARK   99  A    between atoms: _233  and  _234
REMARK  100  A    between atoms: _237  and  _239
REMARK  101  A    between atoms: _239  and  _240
REMARK  102  A    between atoms: _239  and  _242
REMARK  103  A    between atoms: _245  and  _247
REMARK  104  A    between atoms: _247  and  _248
REMARK  105  A    between atoms: _247  and  _250
REMARK  106  A    between atoms: _250  and  _251
REMARK  107  A    between atoms: _253  and  _255
REMARK  108  A    between atoms: _255  and  _256
REMARK  109  A    between atoms: _255  and  _258
REMARK  110  A    between atoms: _258  and  _259
REMARK  111  A    between atoms: _261  and  _263
REMARK  112  A    between atoms: _263  and  _264
REMARK  113  A    between atoms: _263  and  _266
REMARK  114  A    between atoms: _266  and  _267
REMARK  115  A    between atoms: _273  and  _275
REMARK  116  A    between atoms: _275  and  _276
REMARK  117  A    between atoms: _275  and  _278
REMARK  118  A    between atoms: _278  and  _279
REMARK  119  A    between atoms: _282  and  _284
REMARK  120  A    between atoms: _284  and  _285
REMARK  121  A    between atoms: _284  and  _287
REMARK  122  A    between atoms: _287  and  _288
REMARK  123  A    between atoms: _291  and  _293
REMARK  124  A    between atoms: _293  and  _294
REMARK  125  A    between atoms: _293  and  _296
REMARK  126  A    between atoms: _296  and  _297
REMARK  127  A    between atoms: _300  and  _302
REMARK  128  A    between atoms: _302  and  _303
REMARK  129  A    between atoms: _302  and  _305
REMARK  130  A    between atoms: _305  and  _306
REMARK  131  A    between atoms: _306  and  _307
REMARK  132  A    between atoms: _309  and  _311
REMARK  133  A    between atoms: _311  and  _312
REMARK  134  A    between atoms: _311  and  _314
REMARK  135  A    between atoms: _314  and  _315
REMARK  136  A    between atoms: _321  and  _323
REMARK  137  A    between atoms: _323  and  _324
REMARK  138  A    between atoms: _323  and  _326
REMARK  139  A    between atoms: _328  and  _330
REMARK  140  A    between atoms: _330  and  _331
REMARK  141  A    between atoms: _334  and  _336
REMARK  142  A    between atoms: _336  and  _337
REMARK  143  A    between atoms: _339  and  _341
REMARK  144  A    between atoms: _341  and  _342
REMARK  145  A    between atoms: _341  and  _344
REMARK  146  A    between atoms: _344  and  _345
REMARK  147  A    between atoms: _345  and  _346
REMARK  148  A    between atoms: _349  and  _351
REMARK  149  A    between atoms: _351  and  _352
REMARK  150  A    between atoms: _351  and  _354
REMARK  151  A    between atoms: _354  and  _355
REMARK  152  A    between atoms: _358  and  _360
REMARK  153  A    between atoms: _360  and  _361
REMARK  154  A    between atoms: _364  and  _366
REMARK  155  A    between atoms: _366  and  _367
REMARK  156  A    between atoms: _366  and  _369
REMARK  157  A    between atoms: _369  and  _370
REMARK  158  A    between atoms: _370  and  _493
REMARK  159  A    between atoms: _371  and  _373
REMARK  160  A    between atoms: _373  and  _374
REMARK  161  A    between atoms: _373  and  _376
REMARK  162  A    between atoms: _376  and  _377
REMARK  163  A    between atoms: _377  and  _378
REMARK  164  A    between atoms: _383  and  _385
REMARK  165  A    between atoms: _385  and  _386
REMARK  166  A    between atoms: _388  and  _390
REMARK  167  A    between atoms: _390  and  _391
REMARK  168  A    between atoms: _390  and  _393
REMARK  169  A    between atoms: _393  and  _394
REMARK  170  A    between atoms: _397  and  _399
REMARK  171  A    between atoms: _399  and  _400
REMARK  172  A    between atoms: _399  and  _402
REMARK  173  A    between atoms: _402  and  _403
REMARK  174  A    between atoms: _405  and  _407
REMARK  175  A    between atoms: _407  and  _408
REMARK  176  A    between atoms: _410  and  _412
REMARK  177  A    between atoms: _412  and  _413
REMARK  178  A    between atoms: _415  and  _417
REMARK  179  A    between atoms: _417  and  _418
REMARK  180  A    between atoms: _417  and  _420
REMARK  181  A    between atoms: _420  and  _421
REMARK  182  A    between atoms: _426  and  _428
REMARK  183  A    between atoms: _428  and  _429
REMARK  184  A    between atoms: _428  and  _431
REMARK  185  A    between atoms: _431  and  _432
REMARK  186  A    between atoms: _435  and  _437
REMARK  187  A    between atoms: _437  and  _438
REMARK  188  A    between atoms: _437  and  _440
REMARK  189  A    between atoms: _443  and  _445
REMARK  190  A    between atoms: _445  and  _446
REMARK  191  A    between atoms: _445  and  _448
REMARK  192  A    between atoms: _448  and  _449
REMARK  193  A    between atoms: _451  and  _453
REMARK  194  A    between atoms: _453  and  _454
REMARK  195  A    between atoms: _453  and  _456
REMARK  196  A    between atoms: _456  and  _457
REMARK  197  A    between atoms: _467  and  _469
REMARK  198  A    between atoms: _469  and  _470
REMARK  199  A    between atoms: _472  and  _474
REMARK  200  A    between atoms: _474  and  _475
REMARK  201  A    between atoms: _474  and  _477
REMARK  202  A    between atoms: _477  and  _478
REMARK  203  A    between atoms: _478  and  _479
REMARK  204  A    between atoms: _482  and  _484
REMARK  205  A    between atoms: _484  and  _485
REMARK  206  A    between atoms: _487  and  _489
REMARK  207  A    between atoms: _489  and  _490
REMARK  208  A    between atoms: _489  and  _492
REMARK  209  A    between atoms: _492  and  _493
REMARK  210  A    between atoms: _494  and  _496
REMARK  211  A    between atoms: _496  and  _497
REMARK  212  A    between atoms: _500  and  _502
REMARK  213  A    between atoms: _502  and  _503
REMARK  214  A    between atoms: _502  and  _505
REMARK  215  A    between atoms: _505  and  _506
REMARK  216  A    between atoms: _506  and  _507
REMARK  217  A    between atoms: _507  and  _508
REMARK  218  A    between atoms: _517  and  _519
REMARK  219  A    between atoms: _519  and  _520
REMARK  220  A    between atoms: _519  and  _522
REMARK  221  A    between atoms: _522  and  _523
REMARK  222  A    between atoms: _523  and  _524
REMARK  223  A    between atoms: _524  and  _525
REMARK  224  A    between atoms: _525  and  _526
REMARK  225  A    between atoms: _530  and  _532
REMARK  226  A    between atoms: _532  and  _533
REMARK  227  A    between atoms: _532  and  _535
REMARK  228  A    between atoms: _535  and  _536
REMARK  229  A    between atoms: _541  and  _542
REMARK  230  A    between atoms: _544  and  _546
REMARK  231  A    between atoms: _546  and  _547
REMARK  232  A    between atoms: _549  and  _551
REMARK  233  A    between atoms: _551  and  _552
REMARK  234  A    between atoms: _551  and  _554
REMARK  235  A    between atoms: _554  and  _555
REMARK  236  A    between atoms: _558  and  _560
REMARK  237  A    between atoms: _560  and  _561
REMARK  238  A    between atoms: _560  and  _563
REMARK  239  A    between atoms: _563  and  _564
REMARK  240  A    between atoms: _569  and  _570
REMARK  241  A    between atoms: _572  and  _574
REMARK  242  A    between atoms: _574  and  _575
REMARK  243  A    between atoms: _574  and  _577
REMARK  244  A    between atoms: _577  and  _578
REMARK                            x       y       z     vdW  Elec       q    Type
REMARK                         _______ _______ _______ _____ _____    ______ ____
ROOT
ATOM      1  O   HOH     1      18.268  63.457  11.156  0.00  0.00    +0.000 OA
ENDROOT
TORSDOF 0
REMARK  Name = ../refined-set-2016/2xbv/2xbv_pocket.pdb
REMARK  244 active torsions:
REMARK  status: ('A' for Active; 'I' for Inactive)
REMARK    1  A    between atoms: _1  and  _5
REMARK    2  A    between atoms: _5  and  _6
REMARK    3  A    between atoms: _5  and  _8
REMARK    4  A    between atoms: _8  and  _9
REMARK    5  A    between atoms: _12  and  _14
REMARK    6  A    between atoms: _14  and  _15
REMARK    7  A    between atoms: _14  and  _17
REMARK    8  A    between atoms: _20  and  _22
REMARK    9  A    between atoms: _22  and  _23
REMARK   10  A    between atoms: _22  and  _25
REMARK   11  A    between atoms: _25  and  _26
REMARK   12  A    between atoms: _31  and  _33
REMARK   13  A    between atoms: _33  and  _34
REMARK   14  A    between atoms: _33  and  _36
REMARK   15  A    between atoms: _36  and  _37
REMARK   16  A    between atoms: _37  and  _38
REMARK   17  A    between atoms: _43  and  _45
REMARK   18  A    between atoms: _45  and  _46
REMARK   19  A    between atoms: _45  and  _48
REMARK   20  A    between atoms: _48  and  _49
REMARK   21  A    between atoms: _55  and  _57
REMARK   22  A    between atoms: _57  and  _58
REMARK   23  A    between atoms: _57  and  _60
REMARK   24  A    between atoms: _60  and  _61
REMARK   25  A    between atoms: _64  and  _66
REMARK   26  A    between atoms: _66  and  _67
REMARK   27  A    between atoms: _66  and  _69
REMARK   28  A    between atoms: _69  and  _70
REMARK   29  A    between atoms: _70  and  _71
REMARK   30  A    between atoms: _71  and  _72
REMARK   31  A    between atoms: _72  and  _73
REMARK   32  A    between atoms: _77  and  _79
REMARK   33  A    between atoms: _79  and  _80
REMARK   34  A    between atoms: _79  and  _82
REMARK   35  A    between atoms: _82  and  _83
REMARK   36  A    between atoms: _83  and  _84
REMARK   37  A    between atoms: _87  and  _89
REMARK   38  A    between atoms: _89  and  _90
REMARK   39  A    between atoms: _89  and  _92
REMARK   40  A    between atoms: _92  and  _93
REMARK   41  A    between atoms: _96  and  _98
REMARK   42  A    between atoms: _98  and  _99
REMARK   43  A    between atoms: _98  and  _101
REMARK   44  A    between atoms: _101  and  _102
REMARK   45  A    between atoms: _107  and  _108
REMARK   46  A    between atoms: _110  and  _112
REMARK   47  A    between atoms: _112  and  _113
REMARK   48  A    between atoms: _112  and  _115
REMARK   49  A    between atoms: _115  and  _116
REMARK   50  A    between atoms: _119  and  _121
REMARK   51  A    between atoms: _121  and  _122
REMARK   52  A    between atoms: _121  and  _124
REMARK   53  A    between atoms: _124  and  _125
REMARK   54  A    between atoms: _128  and  _130
REMARK   55  A    between atoms: _130  and  _131
REMARK   56  A    between atoms: _130  and  _133
REMARK   57  A    between atoms: _136  and  _138
REMARK   58  A    between atoms: _138  and  _139
REMARK   59  A    between atoms: _141  and  _143
REMARK   60  A    between atoms: _143  and  _144
REMARK   61  A    between atoms: _143  and  _146
REMARK   62  A    between atoms: _146  and  _147
REMARK   63  A    between atoms: _147  and  _148
REMARK   64  A    between atoms: _148  and  _149
REMARK   65  A    between atoms: _158  and  _160
REMARK   66  A    between atoms: _160  and  _161
REMARK   67  A    between atoms: _160  and  _163
REMARK   68  A    between atoms: _163  and  _164
REMARK   69  A    between atoms: _167  and  _169
REMARK   70  A    between atoms: _169  and  _170
REMARK   71  A    between atoms: _169  and  _172
REMARK   72  A    between atoms: _172  and  _173
REMARK   73  A    between atoms: _178  and  _180
REMARK   74  A    between atoms: _180  and  _181
REMARK   75  A    between atoms: _180  and  _183
REMARK   76  A    between atoms: _183  and  _184
REMARK   77  A    between atoms: _184  and  _185
REMARK   78  A    between atoms: _188  and  _190
REMARK   79  A    between atoms: _190  and  _191
REMARK   80  A    between atoms: _190  and  _193
REMARK   81  A    between atoms: _193  and  _194
REMARK   82  A    between atoms: _194  and  _195
REMARK   83  A    between atoms: _195  and  _196
REMARK   84  A    between atoms: _196  and  _197
REMARK   85  A    between atoms: _201  and  _203
REMARK   86  A    between atoms: _203  and  _204
REMARK   87  A    between atoms: _206  and  _208
REMARK   88  A    between atoms: _208  and  _209
REMARK   89  A    between atoms: _208  and  _211
REMARK   90  A    between atoms: _212  and  _213
REMARK   91  A    between atoms: _216  and  _218
REMARK   92  A    between atoms: _218  and  _219
REMARK   93  A    between atoms: _218  and  _221
REMARK   94  A    between atoms: _221  and  _222
REMARK   95  A    between atoms: _222  and  _223
REMARK   96  A    between atoms: _228  and  _230
REMARK   97  A    between atoms: _230  and  _231
REMARK   98  A    between atoms: _230  and  _233
REMARK   99  A    between atoms: _233  and  _234
REMARK  100  A    between atoms: _237  and  _239
REMARK  101  A    between atoms: _239  and  _240
REMARK  102  A    between atoms: _239  and  _242
REMARK  103  A    between atoms: _245  and  _247
REMARK  104  A    between atoms: _247  and  _248
REMARK  105  A    between atoms: _247  and  _250
REMARK  106  A    between atoms: _250  and  _251
REMARK  107  A    between atoms: _253  and  _255
REMARK  108  A    between atoms: _255  and  _256
REMARK  109  A    between atoms: _255  and  _258
REMARK  110  A    between atoms: _258  and  _259
REMARK  111  A    between atoms: _261  and  _263
REMARK  112  A    between atoms: _263  and  _264
REMARK  113  A    between atoms: _263  and  _266
REMARK  114  A    between atoms: _266  and  _267
REMARK  115  A    between atoms: _273  and  _275
REMARK  116  A    between atoms: _275  and  _276
REMARK  117  A    between atoms: _275  and  _278
REMARK  118  A    between atoms: _278  and  _279
REMARK  119  A    between atoms: _282  and  _284
REMARK  120  A    between atoms: _284  and  _285
REMARK  121  A    between atoms: _284  and  _287
REMARK  122  A    between atoms: _287  and  _288
REMARK  123  A    between atoms: _291  and  _293
REMARK  124  A    between atoms: _293  and  _294
REMARK  125  A    between atoms: _293  and  _296
REMARK  126  A    between atoms: _296  and  _297
REMARK  127  A    between atoms: _300  and  _302
REMARK  128  A    between atoms: _302  and  _303
REMARK  129  A    between atoms: _302  and  _305
REMARK  130  A    between atoms: _305  and  _306
REMARK  131  A    between atoms: _306  and  _307
REMARK  132  A    between atoms: _309  and  _311
REMARK  133  A    between atoms: _311  and  _312
REMARK  134  A    between atoms: _311  and  _314
REMARK  135  A    between atoms: _314  and  _315
REMARK  136  A    between atoms: _321  and  _323
REMARK  137  A    between atoms: _323  and  _324
REMARK  138  A    between atoms: _323  and  _326
REMARK  139  A    between atoms: _328  and  _330
REMARK  140  A    between atoms: _330  and  _331
REMARK  141  A    between atoms: _334  and  _336
REMARK  142  A    between atoms: _336  and  _337
REMARK  143  A    between atoms: _339  and  _341
REMARK  144  A    between atoms: _341  and  _342
REMARK  145  A    between atoms: _341  and  _344
REMARK  146  A    between atoms: _344  and  _345
REMARK  147  A    between atoms: _345  and  _346
REMARK  148  A    between atoms: _349  and  _351
REMARK  149  A    between atoms: _351  and  _352
REMARK  150  A    between atoms: _351  and  _354
REMARK  151  A    between atoms: _354  and  _355
REMARK  152  A    between atoms: _358  and  _360
REMARK  153  A    between atoms: _360  and  _361
REMARK  154  A    between atoms: _364  and  _366
REMARK  155  A    between atoms: _366  and  _367
REMARK  156  A    between atoms: _366  and  _369
REMARK  157  A    between atoms: _369  and  _370
REMARK  158  A    between atoms: _370  and  _493
REMARK  159  A    between atoms: _371  and  _373
REMARK  160  A    between atoms: _373  and  _374
REMARK  161  A    between atoms: _373  and  _376
REMARK  162  A    between atoms: _376  and  _377
REMARK  163  A    between atoms: _377  and  _378
REMARK  164  A    between atoms: _383  and  _385
REMARK  165  A    between atoms: _385  and  _386
REMARK  166  A    between atoms: _388  and  _390
REMARK  167  A    between atoms: _390  and  _391
REMARK  168  A    between atoms: _390  and  _393
REMARK  169  A    between atoms: _393  and  _394
REMARK  170  A    between atoms: _397  and  _399
REMARK  171  A    between atoms: _399  and  _400
REMARK  172  A    between atoms: _399  and  _402
REMARK  173  A    between atoms: _402  and  _403
REMARK  174  A    between atoms: _405  and  _407
REMARK  175  A    between atoms: _407  and  _408
REMARK  176  A    between atoms: _410  and  _412
REMARK  177  A    between atoms: _412  and  _413
REMARK  178  A    between atoms: _415  and  _417
REMARK  179  A    between atoms: _417  and  _418
REMARK  180  A    between atoms: _417  and  _420
REMARK  181  A    between atoms: _420  and  _421
REMARK  182  A    between atoms: _426  and  _428
REMARK  183  A    between atoms: _428  and  _429
REMARK  184  A    between atoms: _428  and  _431
REMARK  185  A    between atoms: _431  and  _432
REMARK  186  A    between atoms: _435  and  _437
REMARK  187  A    between atoms: _437  and  _438
REMARK  188  A    between atoms: _437  and  _440
REMARK  189  A    between atoms: _443  and  _445
REMARK  190  A    between atoms: _445  and  _446
REMARK  191  A    between atoms: _445  and  _448
REMARK  192  A    between atoms: _448  and  _449
REMARK  193  A    between atoms: _451  and  _453
REMARK  194  A    between atoms: _453  and  _454
REMARK  195  A    between atoms: _453  and  _456
REMARK  196  A    between atoms: _456  and  _457
REMARK  197  A    between atoms: _467  and  _469
REMARK  198  A    between atoms: _469  and  _470
REMARK  199  A    between atoms: _472  and  _474
REMARK  200  A    between atoms: _474  and  _475
REMARK  201  A    between atoms: _474  and  _477
REMARK  202  A    between atoms: _477  and  _478
REMARK  203  A    between atoms: _478  and  _479
REMARK  204  A    between atoms: _482  and  _484
REMARK  205  A    between atoms: _484  and  _485
REMARK  206  A    between atoms: _487  and  _489
REMARK  207  A    between atoms: _489  and  _490
REMARK  208  A    between atoms: _489  and  _492
REMARK  209  A    between atoms: _492  and  _493
REMARK  210  A    between atoms: _494  and  _496
REMARK  211  A    between atoms: _496  and  _497
REMARK  212  A    between atoms: _500  and  _502
REMARK  213  A    between atoms: _502  and  _503
REMARK  214  A    between atoms: _502  and  _505
REMARK  215  A    between atoms: _505  and  _506
REMARK  216  A    between atoms: _506  and  _507
REMARK  217  A    between atoms: _507  and  _508
REMARK  218  A    between atoms: _517  and  _519
REMARK  219  A    between atoms: _519  and  _520
REMARK  220  A    between atoms: _519  and  _522
REMARK  221  A    between atoms: _522  and  _523
REMARK  222  A    between atoms: _523  and  _524
REMARK  223  A    between atoms: _524  and  _525
REMARK  224  A    between atoms: _525  and  _526
REMARK  225  A    between atoms: _530  and  _532
REMARK  226  A    between atoms: _532  and  _533
REMARK  227  A    between atoms: _532  and  _535
REMARK  228  A    between atoms: _535  and  _536
REMARK  229  A    between atoms: _541  and  _542
REMARK  230  A    between atoms: _544  and  _546
REMARK  231  A    between atoms: _546  and  _547
REMARK  232  A    between atoms: _549  and  _551
REMARK  233  A    between atoms: _551  and  _552
REMARK  234  A    between atoms: _551  and  _554
REMARK  235  A    between atoms: _554  and  _555
REMARK  236  A    between atoms: _558  and  _560
REMARK  237  A    between atoms: _560  and  _561
REMARK  238  A    between atoms: _560  and  _563
REMARK  239  A    between atoms: _563  and  _564
REMARK  240  A    between atoms: _569  and  _570
REMARK  241  A    between atoms: _572  and  _574
REMARK  242  A    between atoms: _574  and  _575
REMARK  243  A    between atoms: _574  and  _577
REMARK  244  A    between atoms: _577  and  _578
REMARK                            x       y       z     vdW  Elec       q    Type
REMARK                         _______ _______ _______ _____ _____    ______ ____
ROOT
ATOM      1  O   HOH     1       6.484  66.710   5.039  0.00  0.00    +0.000 OA
ENDROOT
TORSDOF 0
