REMARK  Name = ../refined-set-2016/2y7i/2y7i_pocket.pdb
REMARK  211 active torsions:
REMARK  status: ('A' for Active; 'I' for Inactive)
REMARK    1  A    between atoms: _1  and  _3
REMARK    2  A    between atoms: _3  and  _4
REMARK    3  A    between atoms: _3  and  _6
REMARK    4  A    between atoms: _6  and  _7
REMARK    5  A    between atoms: _10  and  _12
REMARK    6  A    between atoms: _12  and  _13
REMARK    7  A    between atoms: _12  and  _15
REMARK    8  A    between atoms: _15  and  _16
REMARK    9  A    between atoms: _18  and  _20
REMARK   10  A    between atoms: _20  and  _21
REMARK   11  A    between atoms: _24  and  _26
REMARK   12  A    between atoms: _26  and  _27
REMARK   13  A    between atoms: _26  and  _29
REMARK   14  A    between atoms: _29  and  _30
REMARK   15  A    between atoms: _33  and  _35
REMARK   16  A    between atoms: _35  and  _36
REMARK   17  A    between atoms: _35  and  _38
REMARK   18  A    between atoms: _38  and  _39
REMARK   19  A    between atoms: _44  and  _45
REMARK   20  A    between atoms: _47  and  _49
REMARK   21  A    between atoms: _49  and  _50
REMARK   22  A    between atoms: _53  and  _55
REMARK   23  A    between atoms: _55  and  _56
REMARK   24  A    between atoms: _55  and  _58
REMARK   25  A    between atoms: _58  and  _59
REMARK   26  A    between atoms: _64  and  _65
REMARK   27  A    between atoms: _67  and  _69
REMARK   28  A    between atoms: _69  and  _70
REMARK   29  A    between atoms: _69  and  _72
REMARK   30  A    between atoms: _72  and  _73
REMARK   31  A    between atoms: _73  and  _74
REMARK   32  A    between atoms: _77  and  _79
REMARK   33  A    between atoms: _79  and  _80
REMARK   34  A    between atoms: _79  and  _82
REMARK   35  A    between atoms: _82  and  _83
REMARK   36  A    between atoms: _89  and  _91
REMARK   37  A    between atoms: _91  and  _92
REMARK   38  A    between atoms: _91  and  _94
REMARK   39  A    between atoms: _94  and  _95
REMARK   40  A    between atoms: _98  and  _100
REMARK   41  A    between atoms: _100  and  _101
REMARK   42  A    between atoms: _100  and  _103
REMARK   43  A    between atoms: _103  and  _104
REMARK   44  A    between atoms: _109  and  _111
REMARK   45  A    between atoms: _111  and  _112
REMARK   46  A    between atoms: _111  and  _114
REMARK   47  A    between atoms: _114  and  _115
REMARK   48  A    between atoms: _115  and  _116
REMARK   49  A    between atoms: _121  and  _123
REMARK   50  A    between atoms: _123  and  _124
REMARK   51  A    between atoms: _123  and  _126
REMARK   52  A    between atoms: _126  and  _127
REMARK   53  A    between atoms: _129  and  _131
REMARK   54  A    between atoms: _131  and  _132
REMARK   55  A    between atoms: _131  and  _134
REMARK   56  A    between atoms: _134  and  _135
REMARK   57  A    between atoms: _141  and  _143
REMARK   58  A    between atoms: _143  and  _144
REMARK   59  A    between atoms: _143  and  _146
REMARK   60  A    between atoms: _146  and  _147
REMARK   61  A    between atoms: _150  and  _152
REMARK   62  A    between atoms: _152  and  _153
REMARK   63  A    between atoms: _152  and  _155
REMARK   64  A    between atoms: _155  and  _156
REMARK   65  A    between atoms: _159  and  _161
REMARK   66  A    between atoms: _161  and  _162
REMARK   67  A    between atoms: _161  and  _164
REMARK   68  A    between atoms: _164  and  _165
REMARK   69  A    between atoms: _168  and  _170
REMARK   70  A    between atoms: _170  and  _171
REMARK   71  A    between atoms: _174  and  _176
REMARK   72  A    between atoms: _176  and  _177
REMARK   73  A    between atoms: _179  and  _181
REMARK   74  A    between atoms: _181  and  _182
REMARK   75  A    between atoms: _181  and  _184
REMARK   76  A    between atoms: _184  and  _185
REMARK   77  A    between atoms: _185  and  _186
REMARK   78  A    between atoms: _188  and  _190
REMARK   79  A    between atoms: _190  and  _191
REMARK   80  A    between atoms: _190  and  _193
REMARK   81  A    between atoms: _193  and  _194
REMARK   82  A    between atoms: _197  and  _199
REMARK   83  A    between atoms: _199  and  _200
REMARK   84  A    between atoms: _199  and  _202
REMARK   85  A    between atoms: _202  and  _203
REMARK   86  A    between atoms: _203  and  _204
REMARK   87  A    between atoms: _206  and  _208
REMARK   88  A    between atoms: _208  and  _209
REMARK   89  A    between atoms: _208  and  _211
REMARK   90  A    between atoms: _211  and  _212
REMARK   91  A    between atoms: _215  and  _217
REMARK   92  A    between atoms: _217  and  _218
REMARK   93  A    between atoms: _217  and  _220
REMARK   94  A    between atoms: _220  and  _221
REMARK   95  A    between atoms: _221  and  _222
REMARK   96  A    between atoms: _222  and  _223
REMARK   97  A    between atoms: _232  and  _234
REMARK   98  A    between atoms: _234  and  _235
REMARK   99  A    between atoms: _234  and  _237
REMARK  100  A    between atoms: _237  and  _238
REMARK  101  A    between atoms: _244  and  _246
REMARK  102  A    between atoms: _246  and  _247
REMARK  103  A    between atoms: _246  and  _249
REMARK  104  A    between atoms: _249  and  _250
REMARK  105  A    between atoms: _250  and  _251
REMARK  106  A    between atoms: _254  and  _256
REMARK  107  A    between atoms: _256  and  _257
REMARK  108  A    between atoms: _259  and  _261
REMARK  109  A    between atoms: _261  and  _262
REMARK  110  A    between atoms: _261  and  _264
REMARK  111  A    between atoms: _264  and  _265
REMARK  112  A    between atoms: _268  and  _270
REMARK  113  A    between atoms: _270  and  _271
REMARK  114  A    between atoms: _274  and  _276
REMARK  115  A    between atoms: _276  and  _277
REMARK  116  A    between atoms: _276  and  _279
REMARK  117  A    between atoms: _279  and  _280
REMARK  118  A    between atoms: _280  and  _281
REMARK  119  A    between atoms: _284  and  _286
REMARK  120  A    between atoms: _286  and  _287
REMARK  121  A    between atoms: _286  and  _289
REMARK  122  A    between atoms: _289  and  _290
REMARK  123  A    between atoms: _295  and  _297
REMARK  124  A    between atoms: _297  and  _298
REMARK  125  A    between atoms: _300  and  _302
REMARK  126  A    between atoms: _302  and  _303
REMARK  127  A    between atoms: _302  and  _305
REMARK  128  A    between atoms: _305  and  _306
REMARK  129  A    between atoms: _309  and  _311
REMARK  130  A    between atoms: _311  and  _312
REMARK  131  A    between atoms: _311  and  _314
REMARK  132  A    between atoms: _314  and  _315
REMARK  133  A    between atoms: _318  and  _320
REMARK  134  A    between atoms: _320  and  _321
REMARK  135  A    between atoms: _320  and  _323
REMARK  136  A    between atoms: _323  and  _324
REMARK  137  A    between atoms: _329  and  _331
REMARK  138  A    between atoms: _331  and  _332
REMARK  139  A    between atoms: _331  and  _334
REMARK  140  A    between atoms: _334  and  _335
REMARK  141  A    between atoms: _335  and  _336
REMARK  142  A    between atoms: _341  and  _343
REMARK  143  A    between atoms: _343  and  _344
REMARK  144  A    between atoms: _343  and  _346
REMARK  145  A    between atoms: _346  and  _347
REMARK  146  A    between atoms: _347  and  _348
REMARK  147  A    between atoms: _348  and  _349
REMARK  148  A    between atoms: _358  and  _360
REMARK  149  A    between atoms: _360  and  _361
REMARK  150  A    between atoms: _360  and  _363
REMARK  151  A    between atoms: _363  and  _364
REMARK  152  A    between atoms: _369  and  _370
REMARK  153  A    between atoms: _372  and  _374
REMARK  154  A    between atoms: _374  and  _375
REMARK  155  A    between atoms: _374  and  _377
REMARK  156  A    between atoms: _377  and  _378
REMARK  157  A    between atoms: _381  and  _383
REMARK  158  A    between atoms: _383  and  _384
REMARK  159  A    between atoms: _383  and  _386
REMARK  160  A    between atoms: _386  and  _387
REMARK  161  A    between atoms: _389  and  _391
REMARK  162  A    between atoms: _391  and  _392
REMARK  163  A    between atoms: _391  and  _394
REMARK  164  A    between atoms: _394  and  _395
REMARK  165  A    between atoms: _400  and  _401
REMARK  166  A    between atoms: _403  and  _405
REMARK  167  A    between atoms: _405  and  _406
REMARK  168  A    between atoms: _405  and  _408
REMARK  169  A    between atoms: _408  and  _409
REMARK  170  A    between atoms: _412  and  _414
REMARK  171  A    between atoms: _414  and  _415
REMARK  172  A    between atoms: _414  and  _417
REMARK  173  A    between atoms: _417  and  _418
REMARK  174  A    between atoms: _424  and  _426
REMARK  175  A    between atoms: _426  and  _427
REMARK  176  A    between atoms: _429  and  _431
REMARK  177  A    between atoms: _431  and  _432
REMARK  178  A    between atoms: _431  and  _434
REMARK  179  A    between atoms: _434  and  _435
REMARK  180  A    between atoms: _438  and  _440
REMARK  181  A    between atoms: _440  and  _441
REMARK  182  A    between atoms: _440  and  _443
REMARK  183  A    between atoms: _446  and  _448
REMARK  184  A    between atoms: _448  and  _449
REMARK  185  A    between atoms: _452  and  _454
REMARK  186  A    between atoms: _454  and  _455
REMARK  187  A    between atoms: _454  and  _457
REMARK  188  A    between atoms: _457  and  _458
REMARK  189  A    between atoms: _463  and  _464
REMARK  190  A    between atoms: _466  and  _468
REMARK  191  A    between atoms: _468  and  _469
REMARK  192  A    between atoms: _468  and  _471
REMARK  193  A    between atoms: _471  and  _472
REMARK  194  A    between atoms: _477  and  _478
REMARK  195  A    between atoms: _480  and  _482
REMARK  196  A    between atoms: _482  and  _483
REMARK  197  A    between atoms: _485  and  _487
REMARK  198  A    between atoms: _487  and  _488
REMARK  199  A    between atoms: _487  and  _490
REMARK  200  A    between atoms: _490  and  _491
REMARK  201  A    between atoms: _491  and  _492
REMARK  202  A    between atoms: _492  and  _493
REMARK  203  A    between atoms: _493  and  _494
REMARK  204  A    between atoms: _498  and  _500
REMARK  205  A    between atoms: _500  and  _501
REMARK  206  A    between atoms: _503  and  _505
REMARK  207  A    between atoms: _505  and  _506
REMARK  208  A    between atoms: _505  and  _508
REMARK  209  A    between atoms: _508  and  _509
REMARK  210  A    between atoms: _512  and  _514
REMARK  211  A    between atoms: _514  and  _515
REMARK                            x       y       z     vdW  Elec       q    Type
REMARK                         _______ _______ _______ _____ _____    ______ ____
ROOT
ATOM      1  CA  THR A   4      -4.740  -6.273  31.649  0.00  0.00    +0.176 C 
ENDROOT
BRANCH   1   3
ATOM      2  C   ALA A   3      -3.488  -7.040  29.647  0.00  0.00    +0.241 C 
ATOM      3  N   THR A   4      -3.549  -6.393  30.809  0.00  0.00    -0.295 N 
ATOM      4  H   THR A   4      -2.678  -5.935  31.147  0.00  0.00    +0.150 HD
ATOM      5  O   ALA A   3      -4.464  -7.531  29.083  0.00  0.00    -0.273 OA
BRANCH   2   6
ATOM      6  CA  ALA A   3      -2.097  -7.101  29.005  0.00  0.00    +0.149 C 
ATOM      7  CB  ALA A   3      -2.132  -7.897  27.703  0.00  0.00    +0.031 C 
BRANCH   6  10
ATOM      8  C   SER A   2      -0.443  -6.940  30.817  0.00  0.00    +0.243 C 
ATOM      9  O   SER A   2      -0.742  -5.777  31.117  0.00  0.00    -0.273 OA
ATOM     10  N   ALA A   3      -1.078  -7.659  29.894  0.00  0.00    -0.297 N 
ATOM     11  H   ALA A   3      -0.838  -8.667  29.800  0.00  0.00    +0.150 HD
BRANCH   8  12
ATOM     12  CA  SER A   2       0.715  -7.639  31.501  0.00  0.00    +0.178 C 
BRANCH  12  14
ATOM     13  C   THR A   1       2.855  -7.994  30.374  0.00  0.00    +0.241 C 
ATOM     14  N   SER A   2       1.951  -7.170  30.891  0.00  0.00    -0.295 N 
ATOM     15  H   SER A   2       2.134  -6.147  30.859  0.00  0.00    +0.150 HD
ATOM     16  O   THR A   1       2.782  -9.228  30.472  0.00  0.00    -0.274 OA
BRANCH  13  17
ATOM     17  CA  THR A   1       4.026  -7.322  29.640  0.00  0.00    +0.172 C 
BRANCH  17  18
ATOM     18  CB  THR A   1       3.499  -6.535  28.399  0.00  0.00    +0.135 C 
ATOM     19  CG2 THR A   1       2.529  -7.372  27.576  0.00  0.00    +0.034 C 
BRANCH  18  20
ATOM     20  OG1 THR A   1       2.838  -5.343  28.838  0.00  0.00    -0.383 OA
ATOM     21  HG1 THR A   1       3.477  -4.779  29.341  0.00  0.00    +0.210 HD
ENDBRANCH  18  20
ENDBRANCH  17  18
BRANCH  17  22
ATOM     22  N   THR A   1       5.037  -8.312  29.282  0.00  0.00    -0.236 NA
ATOM     23  H   THR A   1       4.734  -9.292  29.110  0.00  0.00    +0.142 HD
ENDBRANCH  17  22
ENDBRANCH  13  17
ENDBRANCH  12  14
BRANCH  12  24
ATOM     24  CB  SER A   2       0.685  -7.327  32.994  0.00  0.00    +0.166 C 
BRANCH  24  25
ATOM     25  OG  SER A   2      -0.467  -7.910  33.576  0.00  0.00    -0.380 OA
ATOM     26  H   SER A   2      -0.485  -7.707  34.545  0.00  0.00    +0.211 HD
ENDBRANCH  24  25
ENDBRANCH  12  24
ENDBRANCH   8  12
ENDBRANCH   6  10
ENDBRANCH   2   6
ENDBRANCH   1   3
BRANCH   1  27
ATOM     27  C   THR A   4      -5.159  -4.809  31.774  0.00  0.00    +0.243 C 
ATOM     28  O   THR A   4      -6.040  -4.464  32.580  0.00  0.00    -0.273 OA
ATOM     29  N   TYR A   5      -4.530  -3.947  30.972  0.00  0.00    -0.297 N 
ATOM     30  H   TYR A   5      -4.092  -4.298  30.096  0.00  0.00    +0.150 HD
BRANCH  29  31
ATOM     31  CA  TYR A   5      -4.440  -2.522  31.292  0.00  0.00    +0.153 C 
BRANCH  31  32
ATOM     32  C   TYR A   5      -4.610  -1.595  30.080  0.00  0.00    +0.241 C 
ATOM     33  O   TYR A   5      -3.719  -0.816  29.772  0.00  0.00    -0.273 OA
ATOM     34  N   ALA A   6      -5.753  -1.676  29.398  0.00  0.00    -0.298 N 
ATOM     35  H   ALA A   6      -6.439  -2.418  29.644  0.00  0.00    +0.150 HD
BRANCH  34  36
ATOM     36  CA  ALA A   6      -6.066  -0.745  28.310  0.00  0.00    +0.137 C 
ATOM     37  CB  ALA A   6      -7.464  -1.037  27.728  0.00  0.00    +0.030 C 
BRANCH  36  38
ATOM     38  C   ALA A   6      -6.019   0.674  28.858  0.00  0.00    +0.227 C 
ATOM     39  O   ALA A   6      -6.471   0.895  29.985  0.00  0.00    -0.286 OA
ENDBRANCH  36  38
ENDBRANCH  34  36
ENDBRANCH  31  32
BRANCH  31  40
ATOM     40  CB  TYR A   5      -3.079  -2.267  31.987  0.00  0.00    +0.055 C 
BRANCH  40  41
ATOM     41  CG  TYR A   5      -3.092  -1.229  33.106  0.00  0.00    -0.020 A 
ATOM     42  CD2 TYR A   5      -4.025  -1.299  34.141  0.00  0.00    -0.001 A 
ATOM     43  CE2 TYR A   5      -4.041  -0.352  35.170  0.00  0.00    +0.036 A 
ATOM     44  CZ  TYR A   5      -3.103   0.667  35.176  0.00  0.00    +0.134 A 
ATOM     45  CE1 TYR A   5      -2.154   0.759  34.160  0.00  0.00    +0.036 A 
ATOM     46  CD1 TYR A   5      -2.147  -0.193  33.138  0.00  0.00    -0.001 A 
BRANCH  44  47
ATOM     47  OH  TYR A   5      -3.119   1.588  36.205  0.00  0.00    -0.506 OA
ATOM     48  HH  TYR A   5      -2.255   1.558  36.687  0.00  0.00    +0.292 HD
ENDBRANCH  44  47
ENDBRANCH  40  41
ENDBRANCH  31  40
ENDBRANCH  29  31
ENDBRANCH   1  27
BRANCH   1  49
ATOM     49  CB  THR A   4      -4.401  -6.767  33.090  0.00  0.00    +0.137 C 
ATOM     50  CG2 THR A   4      -4.124  -8.256  33.091  0.00  0.00    +0.034 C 
BRANCH  49  51
ATOM     51  OG1 THR A   4      -3.226  -6.079  33.571  0.00  0.00    -0.382 OA
ATOM     52  HG1 THR A   4      -3.012  -6.393  34.485  0.00  0.00    +0.210 HD
ENDBRANCH  49  51
ENDBRANCH   1  49
TORSDOF 21
REMARK  Name = ../refined-set-2016/2y7i/2y7i_pocket.pdb
REMARK  211 active torsions:
REMARK  status: ('A' for Active; 'I' for Inactive)
REMARK    1  A    between atoms: _1  and  _3
REMARK    2  A    between atoms: _3  and  _4
REMARK    3  A    between atoms: _3  and  _6
REMARK    4  A    between atoms: _6  and  _7
REMARK    5  A    between atoms: _10  and  _12
REMARK    6  A    between atoms: _12  and  _13
REMARK    7  A    between atoms: _12  and  _15
REMARK    8  A    between atoms: _15  and  _16
REMARK    9  A    between atoms: _18  and  _20
REMARK   10  A    between atoms: _20  and  _21
REMARK   11  A    between atoms: _24  and  _26
REMARK   12  A    between atoms: _26  and  _27
REMARK   13  A    between atoms: _26  and  _29
REMARK   14  A    between atoms: _29  and  _30
REMARK   15  A    between atoms: _33  and  _35
REMARK   16  A    between atoms: _35  and  _36
REMARK   17  A    between atoms: _35  and  _38
REMARK   18  A    between atoms: _38  and  _39
REMARK   19  A    between atoms: _44  and  _45
REMARK   20  A    between atoms: _47  and  _49
REMARK   21  A    between atoms: _49  and  _50
REMARK   22  A    between atoms: _53  and  _55
REMARK   23  A    between atoms: _55  and  _56
REMARK   24  A    between atoms: _55  and  _58
REMARK   25  A    between atoms: _58  and  _59
REMARK   26  A    between atoms: _64  and  _65
REMARK   27  A    between atoms: _67  and  _69
REMARK   28  A    between atoms: _69  and  _70
REMARK   29  A    between atoms: _69  and  _72
REMARK   30  A    between atoms: _72  and  _73
REMARK   31  A    between atoms: _73  and  _74
REMARK   32  A    between atoms: _77  and  _79
REMARK   33  A    between atoms: _79  and  _80
REMARK   34  A    between atoms: _79  and  _82
REMARK   35  A    between atoms: _82  and  _83
REMARK   36  A    between atoms: _89  and  _91
REMARK   37  A    between atoms: _91  and  _92
REMARK   38  A    between atoms: _91  and  _94
REMARK   39  A    between atoms: _94  and  _95
REMARK   40  A    between atoms: _98  and  _100
REMARK   41  A    between atoms: _100  and  _101
REMARK   42  A    between atoms: _100  and  _103
REMARK   43  A    between atoms: _103  and  _104
REMARK   44  A    between atoms: _109  and  _111
REMARK   45  A    between atoms: _111  and  _112
REMARK   46  A    between atoms: _111  and  _114
REMARK   47  A    between atoms: _114  and  _115
REMARK   48  A    between atoms: _115  and  _116
REMARK   49  A    between atoms: _121  and  _123
REMARK   50  A    between atoms: _123  and  _124
REMARK   51  A    between atoms: _123  and  _126
REMARK   52  A    between atoms: _126  and  _127
REMARK   53  A    between atoms: _129  and  _131
REMARK   54  A    between atoms: _131  and  _132
REMARK   55  A    between atoms: _131  and  _134
REMARK   56  A    between atoms: _134  and  _135
REMARK   57  A    between atoms: _141  and  _143
REMARK   58  A    between atoms: _143  and  _144
REMARK   59  A    between atoms: _143  and  _146
REMARK   60  A    between atoms: _146  and  _147
REMARK   61  A    between atoms: _150  and  _152
REMARK   62  A    between atoms: _152  and  _153
REMARK   63  A    between atoms: _152  and  _155
REMARK   64  A    between atoms: _155  and  _156
REMARK   65  A    between atoms: _159  and  _161
REMARK   66  A    between atoms: _161  and  _162
REMARK   67  A    between atoms: _161  and  _164
REMARK   68  A    between atoms: _164  and  _165
REMARK   69  A    between atoms: _168  and  _170
REMARK   70  A    between atoms: _170  and  _171
REMARK   71  A    between atoms: _174  and  _176
REMARK   72  A    between atoms: _176  and  _177
REMARK   73  A    between atoms: _179  and  _181
REMARK   74  A    between atoms: _181  and  _182
REMARK   75  A    between atoms: _181  and  _184
REMARK   76  A    between atoms: _184  and  _185
REMARK   77  A    between atoms: _185  and  _186
REMARK   78  A    between atoms: _188  and  _190
REMARK   79  A    between atoms: _190  and  _191
REMARK   80  A    between atoms: _190  and  _193
REMARK   81  A    between atoms: _193  and  _194
REMARK   82  A    between atoms: _197  and  _199
REMARK   83  A    between atoms: _199  and  _200
REMARK   84  A    between atoms: _199  and  _202
REMARK   85  A    between atoms: _202  and  _203
REMARK   86  A    between atoms: _203  and  _204
REMARK   87  A    between atoms: _206  and  _208
REMARK   88  A    between atoms: _208  and  _209
REMARK   89  A    between atoms: _208  and  _211
REMARK   90  A    between atoms: _211  and  _212
REMARK   91  A    between atoms: _215  and  _217
REMARK   92  A    between atoms: _217  and  _218
REMARK   93  A    between atoms: _217  and  _220
REMARK   94  A    between atoms: _220  and  _221
REMARK   95  A    between atoms: _221  and  _222
REMARK   96  A    between atoms: _222  and  _223
REMARK   97  A    between atoms: _232  and  _234
REMARK   98  A    between atoms: _234  and  _235
REMARK   99  A    between atoms: _234  and  _237
REMARK  100  A    between atoms: _237  and  _238
REMARK  101  A    between atoms: _244  and  _246
REMARK  102  A    between atoms: _246  and  _247
REMARK  103  A    between atoms: _246  and  _249
REMARK  104  A    between atoms: _249  and  _250
REMARK  105  A    between atoms: _250  and  _251
REMARK  106  A    between atoms: _254  and  _256
REMARK  107  A    between atoms: _256  and  _257
REMARK  108  A    between atoms: _259  and  _261
REMARK  109  A    between atoms: _261  and  _262
REMARK  110  A    between atoms: _261  and  _264
REMARK  111  A    between atoms: _264  and  _265
REMARK  112  A    between atoms: _268  and  _270
REMARK  113  A    between atoms: _270  and  _271
REMARK  114  A    between atoms: _274  and  _276
REMARK  115  A    between atoms: _276  and  _277
REMARK  116  A    between atoms: _276  and  _279
REMARK  117  A    between atoms: _279  and  _280
REMARK  118  A    between atoms: _280  and  _281
REMARK  119  A    between atoms: _284  and  _286
REMARK  120  A    between atoms: _286  and  _287
REMARK  121  A    between atoms: _286  and  _289
REMARK  122  A    between atoms: _289  and  _290
REMARK  123  A    between atoms: _295  and  _297
REMARK  124  A    between atoms: _297  and  _298
REMARK  125  A    between atoms: _300  and  _302
REMARK  126  A    between atoms: _302  and  _303
REMARK  127  A    between atoms: _302  and  _305
REMARK  128  A    between atoms: _305  and  _306
REMARK  129  A    between atoms: _309  and  _311
REMARK  130  A    between atoms: _311  and  _312
REMARK  131  A    between atoms: _311  and  _314
REMARK  132  A    between atoms: _314  and  _315
REMARK  133  A    between atoms: _318  and  _320
REMARK  134  A    between atoms: _320  and  _321
REMARK  135  A    between atoms: _320  and  _323
REMARK  136  A    between atoms: _323  and  _324
REMARK  137  A    between atoms: _329  and  _331
REMARK  138  A    between atoms: _331  and  _332
REMARK  139  A    between atoms: _331  and  _334
REMARK  140  A    between atoms: _334  and  _335
REMARK  141  A    between atoms: _335  and  _336
REMARK  142  A    between atoms: _341  and  _343
REMARK  143  A    between atoms: _343  and  _344
REMARK  144  A    between atoms: _343  and  _346
REMARK  145  A    between atoms: _346  and  _347
REMARK  146  A    between atoms: _347  and  _348
REMARK  147  A    between atoms: _348  and  _349
REMARK  148  A    between atoms: _358  and  _360
REMARK  149  A    between atoms: _360  and  _361
REMARK  150  A    between atoms: _360  and  _363
REMARK  151  A    between atoms: _363  and  _364
REMARK  152  A    between atoms: _369  and  _370
REMARK  153  A    between atoms: _372  and  _374
REMARK  154  A    between atoms: _374  and  _375
REMARK  155  A    between atoms: _374  and  _377
REMARK  156  A    between atoms: _377  and  _378
REMARK  157  A    between atoms: _381  and  _383
REMARK  158  A    between atoms: _383  and  _384
REMARK  159  A    between atoms: _383  and  _386
REMARK  160  A    between atoms: _386  and  _387
REMARK  161  A    between atoms: _389  and  _391
REMARK  162  A    between atoms: _391  and  _392
REMARK  163  A    between atoms: _391  and  _394
REMARK  164  A    between atoms: _394  and  _395
REMARK  165  A    between atoms: _400  and  _401
REMARK  166  A    between atoms: _403  and  _405
REMARK  167  A    between atoms: _405  and  _406
REMARK  168  A    between atoms: _405  and  _408
REMARK  169  A    between atoms: _408  and  _409
REMARK  170  A    between atoms: _412  and  _414
REMARK  171  A    between atoms: _414  and  _415
REMARK  172  A    between atoms: _414  and  _417
REMARK  173  A    between atoms: _417  and  _418
REMARK  174  A    between atoms: _424  and  _426
REMARK  175  A    between atoms: _426  and  _427
REMARK  176  A    between atoms: _429  and  _431
REMARK  177  A    between atoms: _431  and  _432
REMARK  178  A    between atoms: _431  and  _434
REMARK  179  A    between atoms: _434  and  _435
REMARK  180  A    between atoms: _438  and  _440
REMARK  181  A    between atoms: _440  and  _441
REMARK  182  A    between atoms: _440  and  _443
REMARK  183  A    between atoms: _446  and  _448
REMARK  184  A    between atoms: _448  and  _449
REMARK  185  A    between atoms: _452  and  _454
REMARK  186  A    between atoms: _454  and  _455
REMARK  187  A    between atoms: _454  and  _457
REMARK  188  A    between atoms: _457  and  _458
REMARK  189  A    between atoms: _463  and  _464
REMARK  190  A    between atoms: _466  and  _468
REMARK  191  A    between atoms: _468  and  _469
REMARK  192  A    between atoms: _468  and  _471
REMARK  193  A    between atoms: _471  and  _472
REMARK  194  A    between atoms: _477  and  _478
REMARK  195  A    between atoms: _480  and  _482
REMARK  196  A    between atoms: _482  and  _483
REMARK  197  A    between atoms: _485  and  _487
REMARK  198  A    between atoms: _487  and  _488
REMARK  199  A    between atoms: _487  and  _490
REMARK  200  A    between atoms: _490  and  _491
REMARK  201  A    between atoms: _491  and  _492
REMARK  202  A    between atoms: _492  and  _493
REMARK  203  A    between atoms: _493  and  _494
REMARK  204  A    between atoms: _498  and  _500
REMARK  205  A    between atoms: _500  and  _501
REMARK  206  A    between atoms: _503  and  _505
REMARK  207  A    between atoms: _505  and  _506
REMARK  208  A    between atoms: _505  and  _508
REMARK  209  A    between atoms: _508  and  _509
REMARK  210  A    between atoms: _512  and  _514
REMARK  211  A    between atoms: _514  and  _515
REMARK                            x       y       z     vdW  Elec       q    Type
REMARK                         _______ _______ _______ _____ _____    ______ ____
ROOT
ATOM      1  CA  GLU A   2      -1.671  -3.034  26.762  0.00  0.00    +0.149 C 
ENDROOT
BRANCH   1   3
ATOM      2  C   TYR A   1      -1.111  -0.641  26.886  0.00  0.00    +0.239 C 
ATOM      3  N   GLU A   2      -1.750  -1.705  27.373  0.00  0.00    -0.297 N 
ATOM      4  H   GLU A   2      -2.332  -1.586  28.227  0.00  0.00    +0.150 HD
ATOM      5  O   TYR A   1      -0.363  -0.699  25.922  0.00  0.00    -0.274 OA
BRANCH   2   6
ATOM      6  CA  TYR A   1      -1.375   0.701  27.596  0.00  0.00    +0.149 C 
BRANCH   6   7
ATOM      7  N   TYR A   1      -2.812   0.988  27.634  0.00  0.00    -0.238 NA
ATOM      8  H   TYR A   1      -3.305   0.973  28.550  0.00  0.00    +0.142 HD
ENDBRANCH   6   7
BRANCH   6   9
ATOM      9  CB  TYR A   1      -0.803   0.681  29.017  0.00  0.00    +0.053 C 
BRANCH   9  10
ATOM     10  CG  TYR A   1      -0.966   1.988  29.776  0.00  0.00    -0.020 A 
ATOM     11  CD2 TYR A   1      -2.037   2.184  30.661  0.00  0.00    -0.001 A 
ATOM     12  CE2 TYR A   1      -2.185   3.376  31.351  0.00  0.00    +0.036 A 
ATOM     13  CZ  TYR A   1      -1.278   4.395  31.149  0.00  0.00    +0.134 A 
ATOM     14  CE1 TYR A   1      -0.217   4.240  30.273  0.00  0.00    +0.036 A 
ATOM     15  CD1 TYR A   1      -0.070   3.035  29.590  0.00  0.00    -0.001 A 
BRANCH  13  16
ATOM     16  OH  TYR A   1      -1.417   5.582  31.817  0.00  0.00    -0.506 OA
ATOM     17  HH  TYR A   1      -2.289   5.989  31.585  0.00  0.00    +0.292 HD
ENDBRANCH  13  16
ENDBRANCH   9  10
ENDBRANCH   6   9
ENDBRANCH   2   6
ENDBRANCH   1   3
BRANCH   1  18
ATOM     18  C   GLU A   2      -2.876  -3.837  27.188  0.00  0.00    +0.241 C 
ATOM     19  O   GLU A   2      -3.260  -3.825  28.363  0.00  0.00    -0.273 OA
ATOM     20  N   PHE A   3      -3.477  -4.510  26.211  0.00  0.00    -0.298 N 
ATOM     21  H   PHE A   3      -3.074  -4.460  25.254  0.00  0.00    +0.150 HD
BRANCH  20  22
ATOM     22  CA  PHE A   3      -4.667  -5.309  26.418  0.00  0.00    +0.141 C 
BRANCH  22  23
ATOM     23  C   PHE A   3      -4.843  -6.273  25.248  0.00  0.00    +0.227 C 
ATOM     24  O   PHE A   3      -4.063  -6.252  24.286  0.00  0.00    -0.286 OA
ENDBRANCH  22  23
BRANCH  22  25
ATOM     25  CB  PHE A   3      -5.905  -4.417  26.631  0.00  0.00    +0.054 C 
BRANCH  25  26
ATOM     26  CG  PHE A   3      -6.289  -3.578  25.433  0.00  0.00    -0.020 A 
ATOM     27  CD2 PHE A   3      -5.628  -2.378  25.161  0.00  0.00    -0.004 A 
ATOM     28  CE2 PHE A   3      -5.999  -1.587  24.080  0.00  0.00    -0.000 A 
ATOM     29  CZ  PHE A   3      -7.043  -1.987  23.256  0.00  0.00    -0.000 A 
ATOM     30  CE1 PHE A   3      -7.722  -3.186  23.521  0.00  0.00    -0.000 A 
ATOM     31  CD1 PHE A   3      -7.349  -3.963  24.612  0.00  0.00    -0.004 A 
ENDBRANCH  25  26
ENDBRANCH  22  25
ENDBRANCH  20  22
ENDBRANCH   1  18
BRANCH   1  32
ATOM     32  CB  GLU A   2      -0.391  -3.790  27.152  0.00  0.00    +0.041 C 
BRANCH  32  33
ATOM     33  CG  GLU A   2      -0.091  -3.776  28.658  0.00  0.00    +0.116 C 
BRANCH  33  34
ATOM     34  CD  GLU A   2       0.843  -2.660  29.034  0.00  0.00    +0.365 C 
ATOM     35  OE2 GLU A   2       0.741  -2.123  30.166  0.00  0.00    -0.246 OA
ATOM     36  OE1 GLU A   2       1.686  -2.319  28.179  0.00  0.00    -0.246 OA
ENDBRANCH  33  34
ENDBRANCH  32  33
ENDBRANCH   1  32
TORSDOF 14
REMARK  Name = ../refined-set-2016/2y7i/2y7i_pocket.pdb
REMARK  211 active torsions:
REMARK  status: ('A' for Active; 'I' for Inactive)
REMARK    1  A    between atoms: _1  and  _3
REMARK    2  A    between atoms: _3  and  _4
REMARK    3  A    between atoms: _3  and  _6
REMARK    4  A    between atoms: _6  and  _7
REMARK    5  A    between atoms: _10  and  _12
REMARK    6  A    between atoms: _12  and  _13
REMARK    7  A    between atoms: _12  and  _15
REMARK    8  A    between atoms: _15  and  _16
REMARK    9  A    between atoms: _18  and  _20
REMARK   10  A    between atoms: _20  and  _21
REMARK   11  A    between atoms: _24  and  _26
REMARK   12  A    between atoms: _26  and  _27
REMARK   13  A    between atoms: _26  and  _29
REMARK   14  A    between atoms: _29  and  _30
REMARK   15  A    between atoms: _33  and  _35
REMARK   16  A    between atoms: _35  and  _36
REMARK   17  A    between atoms: _35  and  _38
REMARK   18  A    between atoms: _38  and  _39
REMARK   19  A    between atoms: _44  and  _45
REMARK   20  A    between atoms: _47  and  _49
REMARK   21  A    between atoms: _49  and  _50
REMARK   22  A    between atoms: _53  and  _55
REMARK   23  A    between atoms: _55  and  _56
REMARK   24  A    between atoms: _55  and  _58
REMARK   25  A    between atoms: _58  and  _59
REMARK   26  A    between atoms: _64  and  _65
REMARK   27  A    between atoms: _67  and  _69
REMARK   28  A    between atoms: _69  and  _70
REMARK   29  A    between atoms: _69  and  _72
REMARK   30  A    between atoms: _72  and  _73
REMARK   31  A    between atoms: _73  and  _74
REMARK   32  A    between atoms: _77  and  _79
REMARK   33  A    between atoms: _79  and  _80
REMARK   34  A    between atoms: _79  and  _82
REMARK   35  A    between atoms: _82  and  _83
REMARK   36  A    between atoms: _89  and  _91
REMARK   37  A    between atoms: _91  and  _92
REMARK   38  A    between atoms: _91  and  _94
REMARK   39  A    between atoms: _94  and  _95
REMARK   40  A    between atoms: _98  and  _100
REMARK   41  A    between atoms: _100  and  _101
REMARK   42  A    between atoms: _100  and  _103
REMARK   43  A    between atoms: _103  and  _104
REMARK   44  A    between atoms: _109  and  _111
REMARK   45  A    between atoms: _111  and  _112
REMARK   46  A    between atoms: _111  and  _114
REMARK   47  A    between atoms: _114  and  _115
REMARK   48  A    between atoms: _115  and  _116
REMARK   49  A    between atoms: _121  and  _123
REMARK   50  A    between atoms: _123  and  _124
REMARK   51  A    between atoms: _123  and  _126
REMARK   52  A    between atoms: _126  and  _127
REMARK   53  A    between atoms: _129  and  _131
REMARK   54  A    between atoms: _131  and  _132
REMARK   55  A    between atoms: _131  and  _134
REMARK   56  A    between atoms: _134  and  _135
REMARK   57  A    between atoms: _141  and  _143
REMARK   58  A    between atoms: _143  and  _144
REMARK   59  A    between atoms: _143  and  _146
REMARK   60  A    between atoms: _146  and  _147
REMARK   61  A    between atoms: _150  and  _152
REMARK   62  A    between atoms: _152  and  _153
REMARK   63  A    between atoms: _152  and  _155
REMARK   64  A    between atoms: _155  and  _156
REMARK   65  A    between atoms: _159  and  _161
REMARK   66  A    between atoms: _161  and  _162
REMARK   67  A    between atoms: _161  and  _164
REMARK   68  A    between atoms: _164  and  _165
REMARK   69  A    between atoms: _168  and  _170
REMARK   70  A    between atoms: _170  and  _171
REMARK   71  A    between atoms: _174  and  _176
REMARK   72  A    between atoms: _176  and  _177
REMARK   73  A    between atoms: _179  and  _181
REMARK   74  A    between atoms: _181  and  _182
REMARK   75  A    between atoms: _181  and  _184
REMARK   76  A    between atoms: _184  and  _185
REMARK   77  A    between atoms: _185  and  _186
REMARK   78  A    between atoms: _188  and  _190
REMARK   79  A    between atoms: _190  and  _191
REMARK   80  A    between atoms: _190  and  _193
REMARK   81  A    between atoms: _193  and  _194
REMARK   82  A    between atoms: _197  and  _199
REMARK   83  A    between atoms: _199  and  _200
REMARK   84  A    between atoms: _199  and  _202
REMARK   85  A    between atoms: _202  and  _203
REMARK   86  A    between atoms: _203  and  _204
REMARK   87  A    between atoms: _206  and  _208
REMARK   88  A    between atoms: _208  and  _209
REMARK   89  A    between atoms: _208  and  _211
REMARK   90  A    between atoms: _211  and  _212
REMARK   91  A    between atoms: _215  and  _217
REMARK   92  A    between atoms: _217  and  _218
REMARK   93  A    between atoms: _217  and  _220
REMARK   94  A    between atoms: _220  and  _221
REMARK   95  A    between atoms: _221  and  _222
REMARK   96  A    between atoms: _222  and  _223
REMARK   97  A    between atoms: _232  and  _234
REMARK   98  A    between atoms: _234  and  _235
REMARK   99  A    between atoms: _234  and  _237
REMARK  100  A    between atoms: _237  and  _238
REMARK  101  A    between atoms: _244  and  _246
REMARK  102  A    between atoms: _246  and  _247
REMARK  103  A    between atoms: _246  and  _249
REMARK  104  A    between atoms: _249  and  _250
REMARK  105  A    between atoms: _250  and  _251
REMARK  106  A    between atoms: _254  and  _256
REMARK  107  A    between atoms: _256  and  _257
REMARK  108  A    between atoms: _259  and  _261
REMARK  109  A    between atoms: _261  and  _262
REMARK  110  A    between atoms: _261  and  _264
REMARK  111  A    between atoms: _264  and  _265
REMARK  112  A    between atoms: _268  and  _270
REMARK  113  A    between atoms: _270  and  _271
REMARK  114  A    between atoms: _274  and  _276
REMARK  115  A    between atoms: _276  and  _277
REMARK  116  A    between atoms: _276  and  _279
REMARK  117  A    between atoms: _279  and  _280
REMARK  118  A    between atoms: _280  and  _281
REMARK  119  A    between atoms: _284  and  _286
REMARK  120  A    between atoms: _286  and  _287
REMARK  121  A    between atoms: _286  and  _289
REMARK  122  A    between atoms: _289  and  _290
REMARK  123  A    between atoms: _295  and  _297
REMARK  124  A    between atoms: _297  and  _298
REMARK  125  A    between atoms: _300  and  _302
REMARK  126  A    between atoms: _302  and  _303
REMARK  127  A    between atoms: _302  and  _305
REMARK  128  A    between atoms: _305  and  _306
REMARK  129  A    between atoms: _309  and  _311
REMARK  130  A    between atoms: _311  and  _312
REMARK  131  A    between atoms: _311  and  _314
REMARK  132  A    between atoms: _314  and  _315
REMARK  133  A    between atoms: _318  and  _320
REMARK  134  A    between atoms: _320  and  _321
REMARK  135  A    between atoms: _320  and  _323
REMARK  136  A    between atoms: _323  and  _324
REMARK  137  A    between atoms: _329  and  _331
REMARK  138  A    between atoms: _331  and  _332
REMARK  139  A    between atoms: _331  and  _334
REMARK  140  A    between atoms: _334  and  _335
REMARK  141  A    between atoms: _335  and  _336
REMARK  142  A    between atoms: _341  and  _343
REMARK  143  A    between atoms: _343  and  _344
REMARK  144  A    between atoms: _343  and  _346
REMARK  145  A    between atoms: _346  and  _347
REMARK  146  A    between atoms: _347  and  _348
REMARK  147  A    between atoms: _348  and  _349
REMARK  148  A    between atoms: _358  and  _360
REMARK  149  A    between atoms: _360  and  _361
REMARK  150  A    between atoms: _360  and  _363
REMARK  151  A    between atoms: _363  and  _364
REMARK  152  A    between atoms: _369  and  _370
REMARK  153  A    between atoms: _372  and  _374
REMARK  154  A    between atoms: _374  and  _375
REMARK  155  A    between atoms: _374  and  _377
REMARK  156  A    between atoms: _377  and  _378
REMARK  157  A    between atoms: _381  and  _383
REMARK  158  A    between atoms: _383  and  _384
REMARK  159  A    between atoms: _383  and  _386
REMARK  160  A    between atoms: _386  and  _387
REMARK  161  A    between atoms: _389  and  _391
REMARK  162  A    between atoms: _391  and  _392
REMARK  163  A    between atoms: _391  and  _394
REMARK  164  A    between atoms: _394  and  _395
REMARK  165  A    between atoms: _400  and  _401
REMARK  166  A    between atoms: _403  and  _405
REMARK  167  A    between atoms: _405  and  _406
REMARK  168  A    between atoms: _405  and  _408
REMARK  169  A    between atoms: _408  and  _409
REMARK  170  A    between atoms: _412  and  _414
REMARK  171  A    between atoms: _414  and  _415
REMARK  172  A    between atoms: _414  and  _417
REMARK  173  A    between atoms: _417  and  _418
REMARK  174  A    between atoms: _424  and  _426
REMARK  175  A    between atoms: _426  and  _427
REMARK  176  A    between atoms: _429  and  _431
REMARK  177  A    between atoms: _431  and  _432
REMARK  178  A    between atoms: _431  and  _434
REMARK  179  A    between atoms: _434  and  _435
REMARK  180  A    between atoms: _438  and  _440
REMARK  181  A    between atoms: _440  and  _441
REMARK  182  A    between atoms: _440  and  _443
REMARK  183  A    between atoms: _446  and  _448
REMARK  184  A    between atoms: _448  and  _449
REMARK  185  A    between atoms: _452  and  _454
REMARK  186  A    between atoms: _454  and  _455
REMARK  187  A    between atoms: _454  and  _457
REMARK  188  A    between atoms: _457  and  _458
REMARK  189  A    between atoms: _463  and  _464
REMARK  190  A    between atoms: _466  and  _468
REMARK  191  A    between atoms: _468  and  _469
REMARK  192  A    between atoms: _468  and  _471
REMARK  193  A    between atoms: _471  and  _472
REMARK  194  A    between atoms: _477  and  _478
REMARK  195  A    between atoms: _480  and  _482
REMARK  196  A    between atoms: _482  and  _483
REMARK  197  A    between atoms: _485  and  _487
REMARK  198  A    between atoms: _487  and  _488
REMARK  199  A    between atoms: _487  and  _490
REMARK  200  A    between atoms: _490  and  _491
REMARK  201  A    between atoms: _491  and  _492
REMARK  202  A    between atoms: _492  and  _493
REMARK  203  A    between atoms: _493  and  _494
REMARK  204  A    between atoms: _498  and  _500
REMARK  205  A    between atoms: _500  and  _501
REMARK  206  A    between atoms: _503  and  _505
REMARK  207  A    between atoms: _505  and  _506
REMARK  208  A    between atoms: _505  and  _508
REMARK  209  A    between atoms: _508  and  _509
REMARK  210  A    between atoms: _512  and  _514
REMARK  211  A    between atoms: _514  and  _515
REMARK                            x       y       z     vdW  Elec       q    Type
REMARK                         _______ _______ _______ _____ _____    ______ ____
ROOT
ATOM      1  CA  ASP A   1       2.950   0.348  24.882  0.00  0.00    +0.144 C 
ENDROOT
BRANCH   1   2
ATOM      2  N   ASP A   1       1.619   0.934  24.630  0.00  0.00    -0.239 NA
ATOM      3  H   ASP A   1       0.833   0.716  25.275  0.00  0.00    +0.142 HD
ENDBRANCH   1   2
BRANCH   1   4
ATOM      4  C   ASP A   1       3.404  -0.569  23.760  0.00  0.00    +0.225 C 
ATOM      5  O   ASP A   1       4.595  -0.652  23.475  0.00  0.00    -0.287 OA
ENDBRANCH   1   4
BRANCH   1   6
ATOM      6  CB  ASP A   1       2.976  -0.454  26.182  0.00  0.00    +0.139 C 
BRANCH   6   7
ATOM      7  CG  ASP A   1       3.090   0.413  27.411  0.00  0.00    +0.367 C 
ATOM      8  OD2 ASP A   1       2.926  -0.143  28.514  0.00  0.00    -0.246 OA
ATOM      9  OD1 ASP A   1       3.352   1.637  27.300  0.00  0.00    -0.246 OA
ENDBRANCH   6   7
ENDBRANCH   1   6
TORSDOF 4
REMARK  Name = ../refined-set-2016/2y7i/2y7i_pocket.pdb
REMARK  211 active torsions:
REMARK  status: ('A' for Active; 'I' for Inactive)
REMARK    1  A    between atoms: _1  and  _3
REMARK    2  A    between atoms: _3  and  _4
REMARK    3  A    between atoms: _3  and  _6
REMARK    4  A    between atoms: _6  and  _7
REMARK    5  A    between atoms: _10  and  _12
REMARK    6  A    between atoms: _12  and  _13
REMARK    7  A    between atoms: _12  and  _15
REMARK    8  A    between atoms: _15  and  _16
REMARK    9  A    between atoms: _18  and  _20
REMARK   10  A    between atoms: _20  and  _21
REMARK   11  A    between atoms: _24  and  _26
REMARK   12  A    between atoms: _26  and  _27
REMARK   13  A    between atoms: _26  and  _29
REMARK   14  A    between atoms: _29  and  _30
REMARK   15  A    between atoms: _33  and  _35
REMARK   16  A    between atoms: _35  and  _36
REMARK   17  A    between atoms: _35  and  _38
REMARK   18  A    between atoms: _38  and  _39
REMARK   19  A    between atoms: _44  and  _45
REMARK   20  A    between atoms: _47  and  _49
REMARK   21  A    between atoms: _49  and  _50
REMARK   22  A    between atoms: _53  and  _55
REMARK   23  A    between atoms: _55  and  _56
REMARK   24  A    between atoms: _55  and  _58
REMARK   25  A    between atoms: _58  and  _59
REMARK   26  A    between atoms: _64  and  _65
REMARK   27  A    between atoms: _67  and  _69
REMARK   28  A    between atoms: _69  and  _70
REMARK   29  A    between atoms: _69  and  _72
REMARK   30  A    between atoms: _72  and  _73
REMARK   31  A    between atoms: _73  and  _74
REMARK   32  A    between atoms: _77  and  _79
REMARK   33  A    between atoms: _79  and  _80
REMARK   34  A    between atoms: _79  and  _82
REMARK   35  A    between atoms: _82  and  _83
REMARK   36  A    between atoms: _89  and  _91
REMARK   37  A    between atoms: _91  and  _92
REMARK   38  A    between atoms: _91  and  _94
REMARK   39  A    between atoms: _94  and  _95
REMARK   40  A    between atoms: _98  and  _100
REMARK   41  A    between atoms: _100  and  _101
REMARK   42  A    between atoms: _100  and  _103
REMARK   43  A    between atoms: _103  and  _104
REMARK   44  A    between atoms: _109  and  _111
REMARK   45  A    between atoms: _111  and  _112
REMARK   46  A    between atoms: _111  and  _114
REMARK   47  A    between atoms: _114  and  _115
REMARK   48  A    between atoms: _115  and  _116
REMARK   49  A    between atoms: _121  and  _123
REMARK   50  A    between atoms: _123  and  _124
REMARK   51  A    between atoms: _123  and  _126
REMARK   52  A    between atoms: _126  and  _127
REMARK   53  A    between atoms: _129  and  _131
REMARK   54  A    between atoms: _131  and  _132
REMARK   55  A    between atoms: _131  and  _134
REMARK   56  A    between atoms: _134  and  _135
REMARK   57  A    between atoms: _141  and  _143
REMARK   58  A    between atoms: _143  and  _144
REMARK   59  A    between atoms: _143  and  _146
REMARK   60  A    between atoms: _146  and  _147
REMARK   61  A    between atoms: _150  and  _152
REMARK   62  A    between atoms: _152  and  _153
REMARK   63  A    between atoms: _152  and  _155
REMARK   64  A    between atoms: _155  and  _156
REMARK   65  A    between atoms: _159  and  _161
REMARK   66  A    between atoms: _161  and  _162
REMARK   67  A    between atoms: _161  and  _164
REMARK   68  A    between atoms: _164  and  _165
REMARK   69  A    between atoms: _168  and  _170
REMARK   70  A    between atoms: _170  and  _171
REMARK   71  A    between atoms: _174  and  _176
REMARK   72  A    between atoms: _176  and  _177
REMARK   73  A    between atoms: _179  and  _181
REMARK   74  A    between atoms: _181  and  _182
REMARK   75  A    between atoms: _181  and  _184
REMARK   76  A    between atoms: _184  and  _185
REMARK   77  A    between atoms: _185  and  _186
REMARK   78  A    between atoms: _188  and  _190
REMARK   79  A    between atoms: _190  and  _191
REMARK   80  A    between atoms: _190  and  _193
REMARK   81  A    between atoms: _193  and  _194
REMARK   82  A    between atoms: _197  and  _199
REMARK   83  A    between atoms: _199  and  _200
REMARK   84  A    between atoms: _199  and  _202
REMARK   85  A    between atoms: _202  and  _203
REMARK   86  A    between atoms: _203  and  _204
REMARK   87  A    between atoms: _206  and  _208
REMARK   88  A    between atoms: _208  and  _209
REMARK   89  A    between atoms: _208  and  _211
REMARK   90  A    between atoms: _211  and  _212
REMARK   91  A    between atoms: _215  and  _217
REMARK   92  A    between atoms: _217  and  _218
REMARK   93  A    between atoms: _217  and  _220
REMARK   94  A    between atoms: _220  and  _221
REMARK   95  A    between atoms: _221  and  _222
REMARK   96  A    between atoms: _222  and  _223
REMARK   97  A    between atoms: _232  and  _234
REMARK   98  A    between atoms: _234  and  _235
REMARK   99  A    between atoms: _234  and  _237
REMARK  100  A    between atoms: _237  and  _238
REMARK  101  A    between atoms: _244  and  _246
REMARK  102  A    between atoms: _246  and  _247
REMARK  103  A    between atoms: _246  and  _249
REMARK  104  A    between atoms: _249  and  _250
REMARK  105  A    between atoms: _250  and  _251
REMARK  106  A    between atoms: _254  and  _256
REMARK  107  A    between atoms: _256  and  _257
REMARK  108  A    between atoms: _259  and  _261
REMARK  109  A    between atoms: _261  and  _262
REMARK  110  A    between atoms: _261  and  _264
REMARK  111  A    between atoms: _264  and  _265
REMARK  112  A    between atoms: _268  and  _270
REMARK  113  A    between atoms: _270  and  _271
REMARK  114  A    between atoms: _274  and  _276
REMARK  115  A    between atoms: _276  and  _277
REMARK  116  A    between atoms: _276  and  _279
REMARK  117  A    between atoms: _279  and  _280
REMARK  118  A    between atoms: _280  and  _281
REMARK  119  A    between atoms: _284  and  _286
REMARK  120  A    between atoms: _286  and  _287
REMARK  121  A    between atoms: _286  and  _289
REMARK  122  A    between atoms: _289  and  _290
REMARK  123  A    between atoms: _295  and  _297
REMARK  124  A    between atoms: _297  and  _298
REMARK  125  A    between atoms: _300  and  _302
REMARK  126  A    between atoms: _302  and  _303
REMARK  127  A    between atoms: _302  and  _305
REMARK  128  A    between atoms: _305  and  _306
REMARK  129  A    between atoms: _309  and  _311
REMARK  130  A    between atoms: _311  and  _312
REMARK  131  A    between atoms: _311  and  _314
REMARK  132  A    between atoms: _314  and  _315
REMARK  133  A    between atoms: _318  and  _320
REMARK  134  A    between atoms: _320  and  _321
REMARK  135  A    between atoms: _320  and  _323
REMARK  136  A    between atoms: _323  and  _324
REMARK  137  A    between atoms: _329  and  _331
REMARK  138  A    between atoms: _331  and  _332
REMARK  139  A    between atoms: _331  and  _334
REMARK  140  A    between atoms: _334  and  _335
REMARK  141  A    between atoms: _335  and  _336
REMARK  142  A    between atoms: _341  and  _343
REMARK  143  A    between atoms: _343  and  _344
REMARK  144  A    between atoms: _343  and  _346
REMARK  145  A    between atoms: _346  and  _347
REMARK  146  A    between atoms: _347  and  _348
REMARK  147  A    between atoms: _348  and  _349
REMARK  148  A    between atoms: _358  and  _360
REMARK  149  A    between atoms: _360  and  _361
REMARK  150  A    between atoms: _360  and  _363
REMARK  151  A    between atoms: _363  and  _364
REMARK  152  A    between atoms: _369  and  _370
REMARK  153  A    between atoms: _372  and  _374
REMARK  154  A    between atoms: _374  and  _375
REMARK  155  A    between atoms: _374  and  _377
REMARK  156  A    between atoms: _377  and  _378
REMARK  157  A    between atoms: _381  and  _383
REMARK  158  A    between atoms: _383  and  _384
REMARK  159  A    between atoms: _383  and  _386
REMARK  160  A    between atoms: _386  and  _387
REMARK  161  A    between atoms: _389  and  _391
REMARK  162  A    between atoms: _391  and  _392
REMARK  163  A    between atoms: _391  and  _394
REMARK  164  A    between atoms: _394  and  _395
REMARK  165  A    between atoms: _400  and  _401
REMARK  166  A    between atoms: _403  and  _405
REMARK  167  A    between atoms: _405  and  _406
REMARK  168  A    between atoms: _405  and  _408
REMARK  169  A    between atoms: _408  and  _409
REMARK  170  A    between atoms: _412  and  _414
REMARK  171  A    between atoms: _414  and  _415
REMARK  172  A    between atoms: _414  and  _417
REMARK  173  A    between atoms: _417  and  _418
REMARK  174  A    between atoms: _424  and  _426
REMARK  175  A    between atoms: _426  and  _427
REMARK  176  A    between atoms: _429  and  _431
REMARK  177  A    between atoms: _431  and  _432
REMARK  178  A    between atoms: _431  and  _434
REMARK  179  A    between atoms: _434  and  _435
REMARK  180  A    between atoms: _438  and  _440
REMARK  181  A    between atoms: _440  and  _441
REMARK  182  A    between atoms: _440  and  _443
REMARK  183  A    between atoms: _446  and  _448
REMARK  184  A    between atoms: _448  and  _449
REMARK  185  A    between atoms: _452  and  _454
REMARK  186  A    between atoms: _454  and  _455
REMARK  187  A    between atoms: _454  and  _457
REMARK  188  A    between atoms: _457  and  _458
REMARK  189  A    between atoms: _463  and  _464
REMARK  190  A    between atoms: _466  and  _468
REMARK  191  A    between atoms: _468  and  _469
REMARK  192  A    between atoms: _468  and  _471
REMARK  193  A    between atoms: _471  and  _472
REMARK  194  A    between atoms: _477  and  _478
REMARK  195  A    between atoms: _480  and  _482
REMARK  196  A    between atoms: _482  and  _483
REMARK  197  A    between atoms: _485  and  _487
REMARK  198  A    between atoms: _487  and  _488
REMARK  199  A    between atoms: _487  and  _490
REMARK  200  A    between atoms: _490  and  _491
REMARK  201  A    between atoms: _491  and  _492
REMARK  202  A    between atoms: _492  and  _493
REMARK  203  A    between atoms: _493  and  _494
REMARK  204  A    between atoms: _498  and  _500
REMARK  205  A    between atoms: _500  and  _501
REMARK  206  A    between atoms: _503  and  _505
REMARK  207  A    between atoms: _505  and  _506
REMARK  208  A    between atoms: _505  and  _508
REMARK  209  A    between atoms: _508  and  _509
REMARK  210  A    between atoms: _512  and  _514
REMARK  211  A    between atoms: _514  and  _515
REMARK                            x       y       z     vdW  Elec       q    Type
REMARK                         _______ _______ _______ _____ _____    ______ ____
ROOT
ATOM      1  CA  SER A   3       0.896 -11.023  35.798  0.00  0.00    +0.178 C 
ENDROOT
BRANCH   1   3
ATOM      2  C   GLN A   2       1.532 -11.549  33.505  0.00  0.00    +0.241 C 
ATOM      3  N   SER A   3       1.315 -11.966  34.749  0.00  0.00    -0.295 N 
ATOM      4  H   SER A   3       1.443 -12.971  34.983  0.00  0.00    +0.150 HD
ATOM      5  O   GLN A   2       1.484 -10.357  33.188  0.00  0.00    -0.273 OA
BRANCH   2   6
ATOM      6  CA  GLN A   2       1.838 -12.608  32.439  0.00  0.00    +0.149 C 
BRANCH   6   8
ATOM      7  C   ASN A   1       1.569 -12.574  29.993  0.00  0.00    +0.239 C 
ATOM      8  N   GLN A   2       1.877 -11.941  31.122  0.00  0.00    -0.297 N 
ATOM      9  H   GLN A   2       2.155 -10.940  31.075  0.00  0.00    +0.150 HD
ATOM     10  O   ASN A   1       1.241 -13.759  29.962  0.00  0.00    -0.274 OA
BRANCH   7  11
ATOM     11  CA  ASN A   1       1.688 -11.759  28.697  0.00  0.00    +0.154 C 
BRANCH  11  12
ATOM     12  N   ASN A   1       2.695 -12.341  27.823  0.00  0.00    -0.238 NA
ATOM     13  H   ASN A   1       2.443 -13.196  27.288  0.00  0.00    +0.142 HD
ENDBRANCH  11  12
BRANCH  11  14
ATOM     14  CB  ASN A   1       0.350 -11.700  27.937  0.00  0.00    +0.111 C 
BRANCH  14  15
ATOM     15  CG  ASN A   1      -0.829 -11.285  28.806  0.00  0.00    +0.221 C 
ATOM     16  ND2 ASN A   1      -0.587 -10.462  29.810  0.00  0.00    -0.329 N 
ATOM     17 HD21 ASN A   1      -1.366 -10.145  30.422  0.00  0.00    +0.145 HD
ATOM     18 HD22 ASN A   1       0.382 -10.131  29.989  0.00  0.00    +0.145 HD
ATOM     19  OD1 ASN A   1      -1.958 -11.705  28.554  0.00  0.00    -0.275 OA
ENDBRANCH  14  15
ENDBRANCH  11  14
ENDBRANCH   7  11
ENDBRANCH   6   8
BRANCH   6  20
ATOM     20  CB  GLN A   2       3.146 -13.357  32.725  0.00  0.00    +0.039 C 
BRANCH  20  21
ATOM     21  CG  GLN A   2       4.395 -12.475  32.811  0.00  0.00    +0.087 C 
BRANCH  21  22
ATOM     22  CD  GLN A   2       5.684 -13.283  32.965  0.00  0.00    +0.219 C 
ATOM     23  NE2 GLN A   2       6.372 -13.095  34.090  0.00  0.00    -0.329 N 
ATOM     24 HE21 GLN A   2       6.020 -12.432  34.810  0.00  0.00    +0.145 HD
ATOM     25 HE22 GLN A   2       7.261 -13.611  34.248  0.00  0.00    +0.145 HD
ATOM     26  OE1 GLN A   2       6.060 -14.058  32.082  0.00  0.00    -0.275 OA
ENDBRANCH  21  22
ENDBRANCH  20  21
ENDBRANCH   6  20
ENDBRANCH   2   6
ENDBRANCH   1   3
BRANCH   1  27
ATOM     27  C   SER A   3       1.917  -9.895  35.990  0.00  0.00    +0.243 C 
ATOM     28  N   PHE A   4       1.429  -8.690  36.268  0.00  0.00    -0.297 N 
ATOM     29  H   PHE A   4       0.404  -8.578  36.406  0.00  0.00    +0.150 HD
ATOM     30  O   SER A   3       3.130 -10.118  35.882  0.00  0.00    -0.273 OA
BRANCH  28  31
ATOM     31  CA  PHE A   4       2.303  -7.508  36.386  0.00  0.00    +0.153 C 
BRANCH  31  32
ATOM     32  C   PHE A   4       3.398  -7.699  37.430  0.00  0.00    +0.241 C 
ATOM     33  N   ASP A   5       3.028  -8.292  38.565  0.00  0.00    -0.298 N 
ATOM     34  H   ASP A   5       2.049  -8.628  38.663  0.00  0.00    +0.150 HD
ATOM     35  O   PHE A   4       4.557  -7.325  37.200  0.00  0.00    -0.273 OA
BRANCH  33  36
ATOM     36  CA  ASP A   5       3.965  -8.485  39.684  0.00  0.00    +0.148 C 
BRANCH  36  37
ATOM     37  C   ASP A   5       5.061  -9.512  39.408  0.00  0.00    +0.227 C 
ATOM     38  O   ASP A   5       6.022  -9.611  40.180  0.00  0.00    -0.286 OA
ENDBRANCH  36  37
BRANCH  36  39
ATOM     39  CB  ASP A   5       3.206  -8.857  40.963  0.00  0.00    +0.142 C 
BRANCH  39  40
ATOM     40  CG  ASP A   5       2.480 -10.196  40.859  0.00  0.00    +0.367 C 
ATOM     41  OD2 ASP A   5       2.018 -10.689  41.908  0.00  0.00    -0.246 OA
ATOM     42  OD1 ASP A   5       2.363 -10.760  39.749  0.00  0.00    -0.246 OA
ENDBRANCH  39  40
ENDBRANCH  36  39
ENDBRANCH  33  36
ENDBRANCH  31  32
BRANCH  31  43
ATOM     43  CB  PHE A   4       1.490  -6.250  36.734  0.00  0.00    +0.055 C 
BRANCH  43  44
ATOM     44  CG  PHE A   4       2.341  -4.997  36.871  0.00  0.00    -0.020 A 
ATOM     45  CD2 PHE A   4       2.777  -4.558  38.130  0.00  0.00    -0.004 A 
ATOM     46  CE2 PHE A   4       3.557  -3.400  38.259  0.00  0.00    -0.000 A 
ATOM     47  CZ  PHE A   4       3.924  -2.688  37.124  0.00  0.00    -0.000 A 
ATOM     48  CE1 PHE A   4       3.491  -3.108  35.863  0.00  0.00    -0.000 A 
ATOM     49  CD1 PHE A   4       2.710  -4.267  35.743  0.00  0.00    -0.004 A 
ENDBRANCH  43  44
ENDBRANCH  31  43
ENDBRANCH  28  31
ENDBRANCH   1  27
BRANCH   1  50
ATOM     50  CB  SER A   3       0.613 -11.758  37.120  0.00  0.00    +0.166 C 
BRANCH  50  51
ATOM     51  OG  SER A   3       1.765 -12.434  37.615  0.00  0.00    -0.380 OA
ATOM     52  H   SER A   3       2.488 -11.777  37.776  0.00  0.00    +0.211 HD
ENDBRANCH  50  51
ENDBRANCH   1  50
TORSDOF 21
REMARK  Name = ../refined-set-2016/2y7i/2y7i_pocket.pdb
REMARK  211 active torsions:
REMARK  status: ('A' for Active; 'I' for Inactive)
REMARK    1  A    between atoms: _1  and  _3
REMARK    2  A    between atoms: _3  and  _4
REMARK    3  A    between atoms: _3  and  _6
REMARK    4  A    between atoms: _6  and  _7
REMARK    5  A    between atoms: _10  and  _12
REMARK    6  A    between atoms: _12  and  _13
REMARK    7  A    between atoms: _12  and  _15
REMARK    8  A    between atoms: _15  and  _16
REMARK    9  A    between atoms: _18  and  _20
REMARK   10  A    between atoms: _20  and  _21
REMARK   11  A    between atoms: _24  and  _26
REMARK   12  A    between atoms: _26  and  _27
REMARK   13  A    between atoms: _26  and  _29
REMARK   14  A    between atoms: _29  and  _30
REMARK   15  A    between atoms: _33  and  _35
REMARK   16  A    between atoms: _35  and  _36
REMARK   17  A    between atoms: _35  and  _38
REMARK   18  A    between atoms: _38  and  _39
REMARK   19  A    between atoms: _44  and  _45
REMARK   20  A    between atoms: _47  and  _49
REMARK   21  A    between atoms: _49  and  _50
REMARK   22  A    between atoms: _53  and  _55
REMARK   23  A    between atoms: _55  and  _56
REMARK   24  A    between atoms: _55  and  _58
REMARK   25  A    between atoms: _58  and  _59
REMARK   26  A    between atoms: _64  and  _65
REMARK   27  A    between atoms: _67  and  _69
REMARK   28  A    between atoms: _69  and  _70
REMARK   29  A    between atoms: _69  and  _72
REMARK   30  A    between atoms: _72  and  _73
REMARK   31  A    between atoms: _73  and  _74
REMARK   32  A    between atoms: _77  and  _79
REMARK   33  A    between atoms: _79  and  _80
REMARK   34  A    between atoms: _79  and  _82
REMARK   35  A    between atoms: _82  and  _83
REMARK   36  A    between atoms: _89  and  _91
REMARK   37  A    between atoms: _91  and  _92
REMARK   38  A    between atoms: _91  and  _94
REMARK   39  A    between atoms: _94  and  _95
REMARK   40  A    between atoms: _98  and  _100
REMARK   41  A    between atoms: _100  and  _101
REMARK   42  A    between atoms: _100  and  _103
REMARK   43  A    between atoms: _103  and  _104
REMARK   44  A    between atoms: _109  and  _111
REMARK   45  A    between atoms: _111  and  _112
REMARK   46  A    between atoms: _111  and  _114
REMARK   47  A    between atoms: _114  and  _115
REMARK   48  A    between atoms: _115  and  _116
REMARK   49  A    between atoms: _121  and  _123
REMARK   50  A    between atoms: _123  and  _124
REMARK   51  A    between atoms: _123  and  _126
REMARK   52  A    between atoms: _126  and  _127
REMARK   53  A    between atoms: _129  and  _131
REMARK   54  A    between atoms: _131  and  _132
REMARK   55  A    between atoms: _131  and  _134
REMARK   56  A    between atoms: _134  and  _135
REMARK   57  A    between atoms: _141  and  _143
REMARK   58  A    between atoms: _143  and  _144
REMARK   59  A    between atoms: _143  and  _146
REMARK   60  A    between atoms: _146  and  _147
REMARK   61  A    between atoms: _150  and  _152
REMARK   62  A    between atoms: _152  and  _153
REMARK   63  A    between atoms: _152  and  _155
REMARK   64  A    between atoms: _155  and  _156
REMARK   65  A    between atoms: _159  and  _161
REMARK   66  A    between atoms: _161  and  _162
REMARK   67  A    between atoms: _161  and  _164
REMARK   68  A    between atoms: _164  and  _165
REMARK   69  A    between atoms: _168  and  _170
REMARK   70  A    between atoms: _170  and  _171
REMARK   71  A    between atoms: _174  and  _176
REMARK   72  A    between atoms: _176  and  _177
REMARK   73  A    between atoms: _179  and  _181
REMARK   74  A    between atoms: _181  and  _182
REMARK   75  A    between atoms: _181  and  _184
REMARK   76  A    between atoms: _184  and  _185
REMARK   77  A    between atoms: _185  and  _186
REMARK   78  A    between atoms: _188  and  _190
REMARK   79  A    between atoms: _190  and  _191
REMARK   80  A    between atoms: _190  and  _193
REMARK   81  A    between atoms: _193  and  _194
REMARK   82  A    between atoms: _197  and  _199
REMARK   83  A    between atoms: _199  and  _200
REMARK   84  A    between atoms: _199  and  _202
REMARK   85  A    between atoms: _202  and  _203
REMARK   86  A    between atoms: _203  and  _204
REMARK   87  A    between atoms: _206  and  _208
REMARK   88  A    between atoms: _208  and  _209
REMARK   89  A    between atoms: _208  and  _211
REMARK   90  A    between atoms: _211  and  _212
REMARK   91  A    between atoms: _215  and  _217
REMARK   92  A    between atoms: _217  and  _218
REMARK   93  A    between atoms: _217  and  _220
REMARK   94  A    between atoms: _220  and  _221
REMARK   95  A    between atoms: _221  and  _222
REMARK   96  A    between atoms: _222  and  _223
REMARK   97  A    between atoms: _232  and  _234
REMARK   98  A    between atoms: _234  and  _235
REMARK   99  A    between atoms: _234  and  _237
REMARK  100  A    between atoms: _237  and  _238
REMARK  101  A    between atoms: _244  and  _246
REMARK  102  A    between atoms: _246  and  _247
REMARK  103  A    between atoms: _246  and  _249
REMARK  104  A    between atoms: _249  and  _250
REMARK  105  A    between atoms: _250  and  _251
REMARK  106  A    between atoms: _254  and  _256
REMARK  107  A    between atoms: _256  and  _257
REMARK  108  A    between atoms: _259  and  _261
REMARK  109  A    between atoms: _261  and  _262
REMARK  110  A    between atoms: _261  and  _264
REMARK  111  A    between atoms: _264  and  _265
REMARK  112  A    between atoms: _268  and  _270
REMARK  113  A    between atoms: _270  and  _271
REMARK  114  A    between atoms: _274  and  _276
REMARK  115  A    between atoms: _276  and  _277
REMARK  116  A    between atoms: _276  and  _279
REMARK  117  A    between atoms: _279  and  _280
REMARK  118  A    between atoms: _280  and  _281
REMARK  119  A    between atoms: _284  and  _286
REMARK  120  A    between atoms: _286  and  _287
REMARK  121  A    between atoms: _286  and  _289
REMARK  122  A    between atoms: _289  and  _290
REMARK  123  A    between atoms: _295  and  _297
REMARK  124  A    between atoms: _297  and  _298
REMARK  125  A    between atoms: _300  and  _302
REMARK  126  A    between atoms: _302  and  _303
REMARK  127  A    between atoms: _302  and  _305
REMARK  128  A    between atoms: _305  and  _306
REMARK  129  A    between atoms: _309  and  _311
REMARK  130  A    between atoms: _311  and  _312
REMARK  131  A    between atoms: _311  and  _314
REMARK  132  A    between atoms: _314  and  _315
REMARK  133  A    between atoms: _318  and  _320
REMARK  134  A    between atoms: _320  and  _321
REMARK  135  A    between atoms: _320  and  _323
REMARK  136  A    between atoms: _323  and  _324
REMARK  137  A    between atoms: _329  and  _331
REMARK  138  A    between atoms: _331  and  _332
REMARK  139  A    between atoms: _331  and  _334
REMARK  140  A    between atoms: _334  and  _335
REMARK  141  A    between atoms: _335  and  _336
REMARK  142  A    between atoms: _341  and  _343
REMARK  143  A    between atoms: _343  and  _344
REMARK  144  A    between atoms: _343  and  _346
REMARK  145  A    between atoms: _346  and  _347
REMARK  146  A    between atoms: _347  and  _348
REMARK  147  A    between atoms: _348  and  _349
REMARK  148  A    between atoms: _358  and  _360
REMARK  149  A    between atoms: _360  and  _361
REMARK  150  A    between atoms: _360  and  _363
REMARK  151  A    between atoms: _363  and  _364
REMARK  152  A    between atoms: _369  and  _370
REMARK  153  A    between atoms: _372  and  _374
REMARK  154  A    between atoms: _374  and  _375
REMARK  155  A    between atoms: _374  and  _377
REMARK  156  A    between atoms: _377  and  _378
REMARK  157  A    between atoms: _381  and  _383
REMARK  158  A    between atoms: _383  and  _384
REMARK  159  A    between atoms: _383  and  _386
REMARK  160  A    between atoms: _386  and  _387
REMARK  161  A    between atoms: _389  and  _391
REMARK  162  A    between atoms: _391  and  _392
REMARK  163  A    between atoms: _391  and  _394
REMARK  164  A    between atoms: _394  and  _395
REMARK  165  A    between atoms: _400  and  _401
REMARK  166  A    between atoms: _403  and  _405
REMARK  167  A    between atoms: _405  and  _406
REMARK  168  A    between atoms: _405  and  _408
REMARK  169  A    between atoms: _408  and  _409
REMARK  170  A    between atoms: _412  and  _414
REMARK  171  A    between atoms: _414  and  _415
REMARK  172  A    between atoms: _414  and  _417
REMARK  173  A    between atoms: _417  and  _418
REMARK  174  A    between atoms: _424  and  _426
REMARK  175  A    between atoms: _426  and  _427
REMARK  176  A    between atoms: _429  and  _431
REMARK  177  A    between atoms: _431  and  _432
REMARK  178  A    between atoms: _431  and  _434
REMARK  179  A    between atoms: _434  and  _435
REMARK  180  A    between atoms: _438  and  _440
REMARK  181  A    between atoms: _440  and  _441
REMARK  182  A    between atoms: _440  and  _443
REMARK  183  A    between atoms: _446  and  _448
REMARK  184  A    between atoms: _448  and  _449
REMARK  185  A    between atoms: _452  and  _454
REMARK  186  A    between atoms: _454  and  _455
REMARK  187  A    between atoms: _454  and  _457
REMARK  188  A    between atoms: _457  and  _458
REMARK  189  A    between atoms: _463  and  _464
REMARK  190  A    between atoms: _466  and  _468
REMARK  191  A    between atoms: _468  and  _469
REMARK  192  A    between atoms: _468  and  _471
REMARK  193  A    between atoms: _471  and  _472
REMARK  194  A    between atoms: _477  and  _478
REMARK  195  A    between atoms: _480  and  _482
REMARK  196  A    between atoms: _482  and  _483
REMARK  197  A    between atoms: _485  and  _487
REMARK  198  A    between atoms: _487  and  _488
REMARK  199  A    between atoms: _487  and  _490
REMARK  200  A    between atoms: _490  and  _491
REMARK  201  A    between atoms: _491  and  _492
REMARK  202  A    between atoms: _492  and  _493
REMARK  203  A    between atoms: _493  and  _494
REMARK  204  A    between atoms: _498  and  _500
REMARK  205  A    between atoms: _500  and  _501
REMARK  206  A    between atoms: _503  and  _505
REMARK  207  A    between atoms: _505  and  _506
REMARK  208  A    between atoms: _505  and  _508
REMARK  209  A    between atoms: _508  and  _509
REMARK  210  A    between atoms: _512  and  _514
REMARK  211  A    between atoms: _514  and  _515
REMARK                            x       y       z     vdW  Elec       q    Type
REMARK                         _______ _______ _______ _____ _____    ______ ____
ROOT
ATOM      1  CA  LEU A   1       7.498  -9.112  35.294  0.00  0.00    +0.133 C 
ENDROOT
BRANCH   1   2
ATOM      2  N   LEU A   1       6.725  -9.598  36.442  0.00  0.00    -0.239 NA
ATOM      3  H   LEU A   1       6.020  -8.975  36.884  0.00  0.00    +0.142 HD
ENDBRANCH   1   2
BRANCH   1   4
ATOM      4  C   LEU A   1       8.948  -8.814  35.643  0.00  0.00    +0.224 C 
ATOM      5  O   LEU A   1       9.859  -9.258  34.941  0.00  0.00    -0.287 OA
ENDBRANCH   1   4
BRANCH   1   6
ATOM      6  CB  LEU A   1       6.838  -7.884  34.671  0.00  0.00    +0.025 C 
BRANCH   6   7
ATOM      7  CG  LEU A   1       5.548  -8.110  33.872  0.00  0.00    +0.002 C 
ATOM      8  CD2 LEU A   1       4.939  -6.766  33.518  0.00  0.00    +0.000 C 
ATOM      9  CD1 LEU A   1       5.789  -8.970  32.615  0.00  0.00    +0.000 C 
ENDBRANCH   6   7
ENDBRANCH   1   6
TORSDOF 4
REMARK  Name = ../refined-set-2016/2y7i/2y7i_pocket.pdb
REMARK  211 active torsions:
REMARK  status: ('A' for Active; 'I' for Inactive)
REMARK    1  A    between atoms: _1  and  _3
REMARK    2  A    between atoms: _3  and  _4
REMARK    3  A    between atoms: _3  and  _6
REMARK    4  A    between atoms: _6  and  _7
REMARK    5  A    between atoms: _10  and  _12
REMARK    6  A    between atoms: _12  and  _13
REMARK    7  A    between atoms: _12  and  _15
REMARK    8  A    between atoms: _15  and  _16
REMARK    9  A    between atoms: _18  and  _20
REMARK   10  A    between atoms: _20  and  _21
REMARK   11  A    between atoms: _24  and  _26
REMARK   12  A    between atoms: _26  and  _27
REMARK   13  A    between atoms: _26  and  _29
REMARK   14  A    between atoms: _29  and  _30
REMARK   15  A    between atoms: _33  and  _35
REMARK   16  A    between atoms: _35  and  _36
REMARK   17  A    between atoms: _35  and  _38
REMARK   18  A    between atoms: _38  and  _39
REMARK   19  A    between atoms: _44  and  _45
REMARK   20  A    between atoms: _47  and  _49
REMARK   21  A    between atoms: _49  and  _50
REMARK   22  A    between atoms: _53  and  _55
REMARK   23  A    between atoms: _55  and  _56
REMARK   24  A    between atoms: _55  and  _58
REMARK   25  A    between atoms: _58  and  _59
REMARK   26  A    between atoms: _64  and  _65
REMARK   27  A    between atoms: _67  and  _69
REMARK   28  A    between atoms: _69  and  _70
REMARK   29  A    between atoms: _69  and  _72
REMARK   30  A    between atoms: _72  and  _73
REMARK   31  A    between atoms: _73  and  _74
REMARK   32  A    between atoms: _77  and  _79
REMARK   33  A    between atoms: _79  and  _80
REMARK   34  A    between atoms: _79  and  _82
REMARK   35  A    between atoms: _82  and  _83
REMARK   36  A    between atoms: _89  and  _91
REMARK   37  A    between atoms: _91  and  _92
REMARK   38  A    between atoms: _91  and  _94
REMARK   39  A    between atoms: _94  and  _95
REMARK   40  A    between atoms: _98  and  _100
REMARK   41  A    between atoms: _100  and  _101
REMARK   42  A    between atoms: _100  and  _103
REMARK   43  A    between atoms: _103  and  _104
REMARK   44  A    between atoms: _109  and  _111
REMARK   45  A    between atoms: _111  and  _112
REMARK   46  A    between atoms: _111  and  _114
REMARK   47  A    between atoms: _114  and  _115
REMARK   48  A    between atoms: _115  and  _116
REMARK   49  A    between atoms: _121  and  _123
REMARK   50  A    between atoms: _123  and  _124
REMARK   51  A    between atoms: _123  and  _126
REMARK   52  A    between atoms: _126  and  _127
REMARK   53  A    between atoms: _129  and  _131
REMARK   54  A    between atoms: _131  and  _132
REMARK   55  A    between atoms: _131  and  _134
REMARK   56  A    between atoms: _134  and  _135
REMARK   57  A    between atoms: _141  and  _143
REMARK   58  A    between atoms: _143  and  _144
REMARK   59  A    between atoms: _143  and  _146
REMARK   60  A    between atoms: _146  and  _147
REMARK   61  A    between atoms: _150  and  _152
REMARK   62  A    between atoms: _152  and  _153
REMARK   63  A    between atoms: _152  and  _155
REMARK   64  A    between atoms: _155  and  _156
REMARK   65  A    between atoms: _159  and  _161
REMARK   66  A    between atoms: _161  and  _162
REMARK   67  A    between atoms: _161  and  _164
REMARK   68  A    between atoms: _164  and  _165
REMARK   69  A    between atoms: _168  and  _170
REMARK   70  A    between atoms: _170  and  _171
REMARK   71  A    between atoms: _174  and  _176
REMARK   72  A    between atoms: _176  and  _177
REMARK   73  A    between atoms: _179  and  _181
REMARK   74  A    between atoms: _181  and  _182
REMARK   75  A    between atoms: _181  and  _184
REMARK   76  A    between atoms: _184  and  _185
REMARK   77  A    between atoms: _185  and  _186
REMARK   78  A    between atoms: _188  and  _190
REMARK   79  A    between atoms: _190  and  _191
REMARK   80  A    between atoms: _190  and  _193
REMARK   81  A    between atoms: _193  and  _194
REMARK   82  A    between atoms: _197  and  _199
REMARK   83  A    between atoms: _199  and  _200
REMARK   84  A    between atoms: _199  and  _202
REMARK   85  A    between atoms: _202  and  _203
REMARK   86  A    between atoms: _203  and  _204
REMARK   87  A    between atoms: _206  and  _208
REMARK   88  A    between atoms: _208  and  _209
REMARK   89  A    between atoms: _208  and  _211
REMARK   90  A    between atoms: _211  and  _212
REMARK   91  A    between atoms: _215  and  _217
REMARK   92  A    between atoms: _217  and  _218
REMARK   93  A    between atoms: _217  and  _220
REMARK   94  A    between atoms: _220  and  _221
REMARK   95  A    between atoms: _221  and  _222
REMARK   96  A    between atoms: _222  and  _223
REMARK   97  A    between atoms: _232  and  _234
REMARK   98  A    between atoms: _234  and  _235
REMARK   99  A    between atoms: _234  and  _237
REMARK  100  A    between atoms: _237  and  _238
REMARK  101  A    between atoms: _244  and  _246
REMARK  102  A    between atoms: _246  and  _247
REMARK  103  A    between atoms: _246  and  _249
REMARK  104  A    between atoms: _249  and  _250
REMARK  105  A    between atoms: _250  and  _251
REMARK  106  A    between atoms: _254  and  _256
REMARK  107  A    between atoms: _256  and  _257
REMARK  108  A    between atoms: _259  and  _261
REMARK  109  A    between atoms: _261  and  _262
REMARK  110  A    between atoms: _261  and  _264
REMARK  111  A    between atoms: _264  and  _265
REMARK  112  A    between atoms: _268  and  _270
REMARK  113  A    between atoms: _270  and  _271
REMARK  114  A    between atoms: _274  and  _276
REMARK  115  A    between atoms: _276  and  _277
REMARK  116  A    between atoms: _276  and  _279
REMARK  117  A    between atoms: _279  and  _280
REMARK  118  A    between atoms: _280  and  _281
REMARK  119  A    between atoms: _284  and  _286
REMARK  120  A    between atoms: _286  and  _287
REMARK  121  A    between atoms: _286  and  _289
REMARK  122  A    between atoms: _289  and  _290
REMARK  123  A    between atoms: _295  and  _297
REMARK  124  A    between atoms: _297  and  _298
REMARK  125  A    between atoms: _300  and  _302
REMARK  126  A    between atoms: _302  and  _303
REMARK  127  A    between atoms: _302  and  _305
REMARK  128  A    between atoms: _305  and  _306
REMARK  129  A    between atoms: _309  and  _311
REMARK  130  A    between atoms: _311  and  _312
REMARK  131  A    between atoms: _311  and  _314
REMARK  132  A    between atoms: _314  and  _315
REMARK  133  A    between atoms: _318  and  _320
REMARK  134  A    between atoms: _320  and  _321
REMARK  135  A    between atoms: _320  and  _323
REMARK  136  A    between atoms: _323  and  _324
REMARK  137  A    between atoms: _329  and  _331
REMARK  138  A    between atoms: _331  and  _332
REMARK  139  A    between atoms: _331  and  _334
REMARK  140  A    between atoms: _334  and  _335
REMARK  141  A    between atoms: _335  and  _336
REMARK  142  A    between atoms: _341  and  _343
REMARK  143  A    between atoms: _343  and  _344
REMARK  144  A    between atoms: _343  and  _346
REMARK  145  A    between atoms: _346  and  _347
REMARK  146  A    between atoms: _347  and  _348
REMARK  147  A    between atoms: _348  and  _349
REMARK  148  A    between atoms: _358  and  _360
REMARK  149  A    between atoms: _360  and  _361
REMARK  150  A    between atoms: _360  and  _363
REMARK  151  A    between atoms: _363  and  _364
REMARK  152  A    between atoms: _369  and  _370
REMARK  153  A    between atoms: _372  and  _374
REMARK  154  A    between atoms: _374  and  _375
REMARK  155  A    between atoms: _374  and  _377
REMARK  156  A    between atoms: _377  and  _378
REMARK  157  A    between atoms: _381  and  _383
REMARK  158  A    between atoms: _383  and  _384
REMARK  159  A    between atoms: _383  and  _386
REMARK  160  A    between atoms: _386  and  _387
REMARK  161  A    between atoms: _389  and  _391
REMARK  162  A    between atoms: _391  and  _392
REMARK  163  A    between atoms: _391  and  _394
REMARK  164  A    between atoms: _394  and  _395
REMARK  165  A    between atoms: _400  and  _401
REMARK  166  A    between atoms: _403  and  _405
REMARK  167  A    between atoms: _405  and  _406
REMARK  168  A    between atoms: _405  and  _408
REMARK  169  A    between atoms: _408  and  _409
REMARK  170  A    between atoms: _412  and  _414
REMARK  171  A    between atoms: _414  and  _415
REMARK  172  A    between atoms: _414  and  _417
REMARK  173  A    between atoms: _417  and  _418
REMARK  174  A    between atoms: _424  and  _426
REMARK  175  A    between atoms: _426  and  _427
REMARK  176  A    between atoms: _429  and  _431
REMARK  177  A    between atoms: _431  and  _432
REMARK  178  A    between atoms: _431  and  _434
REMARK  179  A    between atoms: _434  and  _435
REMARK  180  A    between atoms: _438  and  _440
REMARK  181  A    between atoms: _440  and  _441
REMARK  182  A    between atoms: _440  and  _443
REMARK  183  A    between atoms: _446  and  _448
REMARK  184  A    between atoms: _448  and  _449
REMARK  185  A    between atoms: _452  and  _454
REMARK  186  A    between atoms: _454  and  _455
REMARK  187  A    between atoms: _454  and  _457
REMARK  188  A    between atoms: _457  and  _458
REMARK  189  A    between atoms: _463  and  _464
REMARK  190  A    between atoms: _466  and  _468
REMARK  191  A    between atoms: _468  and  _469
REMARK  192  A    between atoms: _468  and  _471
REMARK  193  A    between atoms: _471  and  _472
REMARK  194  A    between atoms: _477  and  _478
REMARK  195  A    between atoms: _480  and  _482
REMARK  196  A    between atoms: _482  and  _483
REMARK  197  A    between atoms: _485  and  _487
REMARK  198  A    between atoms: _487  and  _488
REMARK  199  A    between atoms: _487  and  _490
REMARK  200  A    between atoms: _490  and  _491
REMARK  201  A    between atoms: _491  and  _492
REMARK  202  A    between atoms: _492  and  _493
REMARK  203  A    between atoms: _493  and  _494
REMARK  204  A    between atoms: _498  and  _500
REMARK  205  A    between atoms: _500  and  _501
REMARK  206  A    between atoms: _503  and  _505
REMARK  207  A    between atoms: _505  and  _506
REMARK  208  A    between atoms: _505  and  _508
REMARK  209  A    between atoms: _508  and  _509
REMARK  210  A    between atoms: _512  and  _514
REMARK  211  A    between atoms: _514  and  _515
REMARK                            x       y       z     vdW  Elec       q    Type
REMARK                         _______ _______ _______ _____ _____    ______ ____
ROOT
ATOM      1  C   MET A   4       6.301   2.048  34.881  0.00  0.00    +0.241 C 
ATOM      2  N   ASP A   5       5.859   2.682  35.969  0.00  0.00    -0.297 N 
ATOM      3  H   ASP A   5       4.998   2.327  36.432  0.00  0.00    +0.150 HD
ATOM      4  O   MET A   4       7.268   2.429  34.211  0.00  0.00    -0.273 OA
ENDROOT
BRANCH   2   5
ATOM      5  CA  ASP A   5       6.527   3.853  36.543  0.00  0.00    +0.160 C 
BRANCH   5   6
ATOM      6  C   ASP A   5       7.935   3.474  36.975  0.00  0.00    +0.241 C 
ATOM      7  O   ASP A   5       8.143   2.417  37.578  0.00  0.00    -0.273 OA
ATOM      8  N   MET A   6       8.888   4.356  36.695  0.00  0.00    -0.297 N 
ATOM      9  H   MET A   6       8.632   5.227  36.187  0.00  0.00    +0.150 HD
BRANCH   8  10
ATOM     10  CA  MET A   6      10.289   4.145  37.077  0.00  0.00    +0.149 C 
BRANCH  10  11
ATOM     11  C   MET A   6      10.522   4.541  38.527  0.00  0.00    +0.241 C 
ATOM     12  N   THR A   7      10.036   3.715  39.445  0.00  0.00    -0.296 N 
ATOM     13  H   THR A   7       9.586   2.828  39.142  0.00  0.00    +0.150 HD
ATOM     14  O   MET A   6      11.129   5.573  38.813  0.00  0.00    -0.273 OA
BRANCH  12  15
ATOM     15  CA  THR A   7      10.118   4.022  40.869  0.00  0.00    +0.164 C 
BRANCH  15  16
ATOM     16  CB  THR A   7       9.112   3.190  41.673  0.00  0.00    +0.136 C 
ATOM     17  CG2 THR A   7       7.680   3.328  41.102  0.00  0.00    +0.034 C 
BRANCH  16  18
ATOM     18  OG1 THR A   7       9.521   1.816  41.660  0.00  0.00    -0.382 OA
ATOM     19  HG1 THR A   7      10.420   1.737  42.067  0.00  0.00    +0.210 HD
ENDBRANCH  16  18
ENDBRANCH  15  16
BRANCH  15  20
ATOM     20  C   THR A   7      11.531   3.741  41.401  0.00  0.00    +0.229 C 
ATOM     21  O   THR A   7      12.256   2.933  40.816  0.00  0.00    -0.286 OA
ENDBRANCH  15  20
ENDBRANCH  12  15
ENDBRANCH  10  11
BRANCH  10  22
ATOM     22  CB  MET A   6      11.217   4.947  36.164  0.00  0.00    +0.041 C 
BRANCH  22  23
ATOM     23  CG  MET A   6      11.048   4.614  34.678  0.00  0.00    +0.060 C 
BRANCH  23  24
ATOM     24  SD  MET A   6      12.050   5.659  33.585  0.00  0.00    -0.139 S 
ATOM     25  CE  MET A   6      11.400   7.282  33.920  0.00  0.00    +0.069 C 
ENDBRANCH  23  24
ENDBRANCH  22  23
ENDBRANCH  10  22
ENDBRANCH   8  10
ENDBRANCH   5   6
BRANCH   5  26
ATOM     26  CB  ASP A   5       5.777   4.362  37.786  0.00  0.00    +0.143 C 
BRANCH  26  27
ATOM     27  CG  ASP A   5       4.431   5.014  37.461  0.00  0.00    +0.367 C 
ATOM     28  OD2 ASP A   5       3.966   5.830  38.299  0.00  0.00    -0.246 OA
ATOM     29  OD1 ASP A   5       3.839   4.739  36.400  0.00  0.00    -0.246 OA
ENDBRANCH  26  27
ENDBRANCH   5  26
ENDBRANCH   2   5
BRANCH   1  30
ATOM     30  CA  MET A   4       5.529   0.789  34.477  0.00  0.00    +0.149 C 
BRANCH  30  33
ATOM     31  C   GLY A   3       3.494   1.272  33.196  0.00  0.00    +0.243 C 
ATOM     32  O   GLY A   3       2.889   1.703  34.168  0.00  0.00    -0.273 OA
ATOM     33  N   MET A   4       4.788   0.952  33.223  0.00  0.00    -0.297 N 
ATOM     34  H   MET A   4       5.289   0.813  32.322  0.00  0.00    +0.150 HD
BRANCH  31  35
ATOM     35  CA  GLY A   3       2.789   1.119  31.858  0.00  0.00    +0.176 C 
BRANCH  35  38
ATOM     36  C   ALA A   2       3.259  -1.266  31.737  0.00  0.00    +0.241 C 
ATOM     37  O   ALA A   2       2.793  -1.460  32.864  0.00  0.00    -0.273 OA
ATOM     38  N   GLY A   3       3.261  -0.066  31.155  0.00  0.00    -0.295 N 
ATOM     39  H   GLY A   3       3.607   0.026  30.178  0.00  0.00    +0.150 HD
BRANCH  36  40
ATOM     40  CA  ALA A   2       3.869  -2.416  30.943  0.00  0.00    +0.149 C 
ATOM     41  CB  ALA A   2       3.995  -3.669  31.840  0.00  0.00    +0.031 C 
BRANCH  40  43
ATOM     42  C   ILE A   1       5.655  -2.908  29.358  0.00  0.00    +0.238 C 
ATOM     43  N   ALA A   2       5.165  -2.113  30.311  0.00  0.00    -0.297 N 
ATOM     44  H   ALA A   2       5.702  -1.274  30.610  0.00  0.00    +0.150 HD
ATOM     45  O   ILE A   1       5.022  -3.876  28.902  0.00  0.00    -0.274 OA
BRANCH  42  46
ATOM     46  CA  ILE A   1       7.085  -2.625  28.886  0.00  0.00    +0.145 C 
BRANCH  46  47
ATOM     47  N   ILE A   1       7.856  -3.849  29.069  0.00  0.00    -0.238 NA
ATOM     48  H   ILE A   1       7.456  -4.752  28.742  0.00  0.00    +0.142 HD
ENDBRANCH  46  47
BRANCH  46  49
ATOM     49  CB  ILE A   1       7.183  -2.085  27.423  0.00  0.00    +0.025 C 
ATOM     50  CG2 ILE A   1       6.446  -3.004  26.409  0.00  0.00    +0.002 C 
BRANCH  49  51
ATOM     51  CG1 ILE A   1       6.708  -0.626  27.339  0.00  0.00    +0.002 C 
ATOM     52  CD1 ILE A   1       6.883   0.020  25.937  0.00  0.00    +0.000 C 
ENDBRANCH  49  51
ENDBRANCH  46  49
ENDBRANCH  42  46
ENDBRANCH  40  43
ENDBRANCH  36  40
ENDBRANCH  35  38
ENDBRANCH  31  35
ENDBRANCH  30  33
BRANCH  30  53
ATOM     53  CB  MET A   4       6.494  -0.406  34.356  0.00  0.00    +0.041 C 
BRANCH  53  54
ATOM     54  CG  MET A   4       7.368  -0.660  35.602  0.00  0.00    +0.060 C 
BRANCH  54  55
ATOM     55  SD  MET A   4       8.483  -2.084  35.459  0.00  0.00    -0.139 S 
ATOM     56  CE  MET A   4       7.289  -3.440  35.645  0.00  0.00    +0.069 C 
ENDBRANCH  54  55
ENDBRANCH  53  54
ENDBRANCH  30  53
ENDBRANCH   1  30
TORSDOF 26
REMARK  Name = ../refined-set-2016/2y7i/2y7i_pocket.pdb
REMARK  211 active torsions:
REMARK  status: ('A' for Active; 'I' for Inactive)
REMARK    1  A    between atoms: _1  and  _3
REMARK    2  A    between atoms: _3  and  _4
REMARK    3  A    between atoms: _3  and  _6
REMARK    4  A    between atoms: _6  and  _7
REMARK    5  A    between atoms: _10  and  _12
REMARK    6  A    between atoms: _12  and  _13
REMARK    7  A    between atoms: _12  and  _15
REMARK    8  A    between atoms: _15  and  _16
REMARK    9  A    between atoms: _18  and  _20
REMARK   10  A    between atoms: _20  and  _21
REMARK   11  A    between atoms: _24  and  _26
REMARK   12  A    between atoms: _26  and  _27
REMARK   13  A    between atoms: _26  and  _29
REMARK   14  A    between atoms: _29  and  _30
REMARK   15  A    between atoms: _33  and  _35
REMARK   16  A    between atoms: _35  and  _36
REMARK   17  A    between atoms: _35  and  _38
REMARK   18  A    between atoms: _38  and  _39
REMARK   19  A    between atoms: _44  and  _45
REMARK   20  A    between atoms: _47  and  _49
REMARK   21  A    between atoms: _49  and  _50
REMARK   22  A    between atoms: _53  and  _55
REMARK   23  A    between atoms: _55  and  _56
REMARK   24  A    between atoms: _55  and  _58
REMARK   25  A    between atoms: _58  and  _59
REMARK   26  A    between atoms: _64  and  _65
REMARK   27  A    between atoms: _67  and  _69
REMARK   28  A    between atoms: _69  and  _70
REMARK   29  A    between atoms: _69  and  _72
REMARK   30  A    between atoms: _72  and  _73
REMARK   31  A    between atoms: _73  and  _74
REMARK   32  A    between atoms: _77  and  _79
REMARK   33  A    between atoms: _79  and  _80
REMARK   34  A    between atoms: _79  and  _82
REMARK   35  A    between atoms: _82  and  _83
REMARK   36  A    between atoms: _89  and  _91
REMARK   37  A    between atoms: _91  and  _92
REMARK   38  A    between atoms: _91  and  _94
REMARK   39  A    between atoms: _94  and  _95
REMARK   40  A    between atoms: _98  and  _100
REMARK   41  A    between atoms: _100  and  _101
REMARK   42  A    between atoms: _100  and  _103
REMARK   43  A    between atoms: _103  and  _104
REMARK   44  A    between atoms: _109  and  _111
REMARK   45  A    between atoms: _111  and  _112
REMARK   46  A    between atoms: _111  and  _114
REMARK   47  A    between atoms: _114  and  _115
REMARK   48  A    between atoms: _115  and  _116
REMARK   49  A    between atoms: _121  and  _123
REMARK   50  A    between atoms: _123  and  _124
REMARK   51  A    between atoms: _123  and  _126
REMARK   52  A    between atoms: _126  and  _127
REMARK   53  A    between atoms: _129  and  _131
REMARK   54  A    between atoms: _131  and  _132
REMARK   55  A    between atoms: _131  and  _134
REMARK   56  A    between atoms: _134  and  _135
REMARK   57  A    between atoms: _141  and  _143
REMARK   58  A    between atoms: _143  and  _144
REMARK   59  A    between atoms: _143  and  _146
REMARK   60  A    between atoms: _146  and  _147
REMARK   61  A    between atoms: _150  and  _152
REMARK   62  A    between atoms: _152  and  _153
REMARK   63  A    between atoms: _152  and  _155
REMARK   64  A    between atoms: _155  and  _156
REMARK   65  A    between atoms: _159  and  _161
REMARK   66  A    between atoms: _161  and  _162
REMARK   67  A    between atoms: _161  and  _164
REMARK   68  A    between atoms: _164  and  _165
REMARK   69  A    between atoms: _168  and  _170
REMARK   70  A    between atoms: _170  and  _171
REMARK   71  A    between atoms: _174  and  _176
REMARK   72  A    between atoms: _176  and  _177
REMARK   73  A    between atoms: _179  and  _181
REMARK   74  A    between atoms: _181  and  _182
REMARK   75  A    between atoms: _181  and  _184
REMARK   76  A    between atoms: _184  and  _185
REMARK   77  A    between atoms: _185  and  _186
REMARK   78  A    between atoms: _188  and  _190
REMARK   79  A    between atoms: _190  and  _191
REMARK   80  A    between atoms: _190  and  _193
REMARK   81  A    between atoms: _193  and  _194
REMARK   82  A    between atoms: _197  and  _199
REMARK   83  A    between atoms: _199  and  _200
REMARK   84  A    between atoms: _199  and  _202
REMARK   85  A    between atoms: _202  and  _203
REMARK   86  A    between atoms: _203  and  _204
REMARK   87  A    between atoms: _206  and  _208
REMARK   88  A    between atoms: _208  and  _209
REMARK   89  A    between atoms: _208  and  _211
REMARK   90  A    between atoms: _211  and  _212
REMARK   91  A    between atoms: _215  and  _217
REMARK   92  A    between atoms: _217  and  _218
REMARK   93  A    between atoms: _217  and  _220
REMARK   94  A    between atoms: _220  and  _221
REMARK   95  A    between atoms: _221  and  _222
REMARK   96  A    between atoms: _222  and  _223
REMARK   97  A    between atoms: _232  and  _234
REMARK   98  A    between atoms: _234  and  _235
REMARK   99  A    between atoms: _234  and  _237
REMARK  100  A    between atoms: _237  and  _238
REMARK  101  A    between atoms: _244  and  _246
REMARK  102  A    between atoms: _246  and  _247
REMARK  103  A    between atoms: _246  and  _249
REMARK  104  A    between atoms: _249  and  _250
REMARK  105  A    between atoms: _250  and  _251
REMARK  106  A    between atoms: _254  and  _256
REMARK  107  A    between atoms: _256  and  _257
REMARK  108  A    between atoms: _259  and  _261
REMARK  109  A    between atoms: _261  and  _262
REMARK  110  A    between atoms: _261  and  _264
REMARK  111  A    between atoms: _264  and  _265
REMARK  112  A    between atoms: _268  and  _270
REMARK  113  A    between atoms: _270  and  _271
REMARK  114  A    between atoms: _274  and  _276
REMARK  115  A    between atoms: _276  and  _277
REMARK  116  A    between atoms: _276  and  _279
REMARK  117  A    between atoms: _279  and  _280
REMARK  118  A    between atoms: _280  and  _281
REMARK  119  A    between atoms: _284  and  _286
REMARK  120  A    between atoms: _286  and  _287
REMARK  121  A    between atoms: _286  and  _289
REMARK  122  A    between atoms: _289  and  _290
REMARK  123  A    between atoms: _295  and  _297
REMARK  124  A    between atoms: _297  and  _298
REMARK  125  A    between atoms: _300  and  _302
REMARK  126  A    between atoms: _302  and  _303
REMARK  127  A    between atoms: _302  and  _305
REMARK  128  A    between atoms: _305  and  _306
REMARK  129  A    between atoms: _309  and  _311
REMARK  130  A    between atoms: _311  and  _312
REMARK  131  A    between atoms: _311  and  _314
REMARK  132  A    between atoms: _314  and  _315
REMARK  133  A    between atoms: _318  and  _320
REMARK  134  A    between atoms: _320  and  _321
REMARK  135  A    between atoms: _320  and  _323
REMARK  136  A    between atoms: _323  and  _324
REMARK  137  A    between atoms: _329  and  _331
REMARK  138  A    between atoms: _331  and  _332
REMARK  139  A    between atoms: _331  and  _334
REMARK  140  A    between atoms: _334  and  _335
REMARK  141  A    between atoms: _335  and  _336
REMARK  142  A    between atoms: _341  and  _343
REMARK  143  A    between atoms: _343  and  _344
REMARK  144  A    between atoms: _343  and  _346
REMARK  145  A    between atoms: _346  and  _347
REMARK  146  A    between atoms: _347  and  _348
REMARK  147  A    between atoms: _348  and  _349
REMARK  148  A    between atoms: _358  and  _360
REMARK  149  A    between atoms: _360  and  _361
REMARK  150  A    between atoms: _360  and  _363
REMARK  151  A    between atoms: _363  and  _364
REMARK  152  A    between atoms: _369  and  _370
REMARK  153  A    between atoms: _372  and  _374
REMARK  154  A    between atoms: _374  and  _375
REMARK  155  A    between atoms: _374  and  _377
REMARK  156  A    between atoms: _377  and  _378
REMARK  157  A    between atoms: _381  and  _383
REMARK  158  A    between atoms: _383  and  _384
REMARK  159  A    between atoms: _383  and  _386
REMARK  160  A    between atoms: _386  and  _387
REMARK  161  A    between atoms: _389  and  _391
REMARK  162  A    between atoms: _391  and  _392
REMARK  163  A    between atoms: _391  and  _394
REMARK  164  A    between atoms: _394  and  _395
REMARK  165  A    between atoms: _400  and  _401
REMARK  166  A    between atoms: _403  and  _405
REMARK  167  A    between atoms: _405  and  _406
REMARK  168  A    between atoms: _405  and  _408
REMARK  169  A    between atoms: _408  and  _409
REMARK  170  A    between atoms: _412  and  _414
REMARK  171  A    between atoms: _414  and  _415
REMARK  172  A    between atoms: _414  and  _417
REMARK  173  A    between atoms: _417  and  _418
REMARK  174  A    between atoms: _424  and  _426
REMARK  175  A    between atoms: _426  and  _427
REMARK  176  A    between atoms: _429  and  _431
REMARK  177  A    between atoms: _431  and  _432
REMARK  178  A    between atoms: _431  and  _434
REMARK  179  A    between atoms: _434  and  _435
REMARK  180  A    between atoms: _438  and  _440
REMARK  181  A    between atoms: _440  and  _441
REMARK  182  A    between atoms: _440  and  _443
REMARK  183  A    between atoms: _446  and  _448
REMARK  184  A    between atoms: _448  and  _449
REMARK  185  A    between atoms: _452  and  _454
REMARK  186  A    between atoms: _454  and  _455
REMARK  187  A    between atoms: _454  and  _457
REMARK  188  A    between atoms: _457  and  _458
REMARK  189  A    between atoms: _463  and  _464
REMARK  190  A    between atoms: _466  and  _468
REMARK  191  A    between atoms: _468  and  _469
REMARK  192  A    between atoms: _468  and  _471
REMARK  193  A    between atoms: _471  and  _472
REMARK  194  A    between atoms: _477  and  _478
REMARK  195  A    between atoms: _480  and  _482
REMARK  196  A    between atoms: _482  and  _483
REMARK  197  A    between atoms: _485  and  _487
REMARK  198  A    between atoms: _487  and  _488
REMARK  199  A    between atoms: _487  and  _490
REMARK  200  A    between atoms: _490  and  _491
REMARK  201  A    between atoms: _491  and  _492
REMARK  202  A    between atoms: _492  and  _493
REMARK  203  A    between atoms: _493  and  _494
REMARK  204  A    between atoms: _498  and  _500
REMARK  205  A    between atoms: _500  and  _501
REMARK  206  A    between atoms: _503  and  _505
REMARK  207  A    between atoms: _505  and  _506
REMARK  208  A    between atoms: _505  and  _508
REMARK  209  A    between atoms: _508  and  _509
REMARK  210  A    between atoms: _512  and  _514
REMARK  211  A    between atoms: _514  and  _515
REMARK                            x       y       z     vdW  Elec       q    Type
REMARK                         _______ _______ _______ _____ _____    ______ ____
ROOT
ATOM      1  NE  ARG A   1       7.392  -0.995  39.817  0.00  0.00    -0.265 N 
ATOM      2  HE  ARG A   1       7.364  -1.824  40.444  0.00  0.00    +0.259 HD
ATOM      3  CZ  ARG A   1       6.245  -0.409  39.504  0.00  0.00    +0.342 C 
ATOM      4  NH2 ARG A   1       5.098  -0.881  39.990  0.00  0.00    -0.292 N 
ATOM      5 HH21 ARG A   1       5.101  -1.711  40.617  0.00  0.00    +0.255 HD
ATOM      6 HH22 ARG A   1       4.199  -0.419  39.743  0.00  0.00    +0.255 HD
ATOM      7  NH1 ARG A   1       6.248   0.651  38.694  0.00  0.00    -0.292 N 
ATOM      8 HH11 ARG A   1       5.352   1.117  38.443  0.00  0.00    +0.255 HD
ATOM      9 HH12 ARG A   1       7.146   1.012  38.313  0.00  0.00    +0.255 HD
ENDROOT
BRANCH   1  10
ATOM     10  CD  ARG A   1       8.692  -0.543  39.331  0.00  0.00    +0.174 C 
BRANCH  10  11
ATOM     11  CG  ARG A   1       9.803  -1.017  40.245  0.00  0.00    +0.045 C 
BRANCH  11  12
ATOM     12  CB  ARG A   1      11.171  -0.522  39.780  0.00  0.00    +0.029 C 
BRANCH  12  13
ATOM     13  CA  ARG A   1      12.254  -0.770  40.819  0.00  0.00    +0.133 C 
BRANCH  13  14
ATOM     14  N   ARG A   1      12.023   0.022  42.011  0.00  0.00    -0.239 NA
ATOM     15  H   ARG A   1      11.382   0.840  41.975  0.00  0.00    +0.142 HD
ENDBRANCH  13  14
BRANCH  13  16
ATOM     16  C   ARG A   1      13.647  -0.514  40.256  0.00  0.00    +0.224 C 
ATOM     17  O   ARG A   1      14.270  -1.424  39.713  0.00  0.00    -0.287 OA
ENDBRANCH  13  16
ENDBRANCH  12  13
ENDBRANCH  11  12
ENDBRANCH  10  11
ENDBRANCH   1  10
TORSDOF 6
REMARK  Name = ../refined-set-2016/2y7i/2y7i_pocket.pdb
REMARK  211 active torsions:
REMARK  status: ('A' for Active; 'I' for Inactive)
REMARK    1  A    between atoms: _1  and  _3
REMARK    2  A    between atoms: _3  and  _4
REMARK    3  A    between atoms: _3  and  _6
REMARK    4  A    between atoms: _6  and  _7
REMARK    5  A    between atoms: _10  and  _12
REMARK    6  A    between atoms: _12  and  _13
REMARK    7  A    between atoms: _12  and  _15
REMARK    8  A    between atoms: _15  and  _16
REMARK    9  A    between atoms: _18  and  _20
REMARK   10  A    between atoms: _20  and  _21
REMARK   11  A    between atoms: _24  and  _26
REMARK   12  A    between atoms: _26  and  _27
REMARK   13  A    between atoms: _26  and  _29
REMARK   14  A    between atoms: _29  and  _30
REMARK   15  A    between atoms: _33  and  _35
REMARK   16  A    between atoms: _35  and  _36
REMARK   17  A    between atoms: _35  and  _38
REMARK   18  A    between atoms: _38  and  _39
REMARK   19  A    between atoms: _44  and  _45
REMARK   20  A    between atoms: _47  and  _49
REMARK   21  A    between atoms: _49  and  _50
REMARK   22  A    between atoms: _53  and  _55
REMARK   23  A    between atoms: _55  and  _56
REMARK   24  A    between atoms: _55  and  _58
REMARK   25  A    between atoms: _58  and  _59
REMARK   26  A    between atoms: _64  and  _65
REMARK   27  A    between atoms: _67  and  _69
REMARK   28  A    between atoms: _69  and  _70
REMARK   29  A    between atoms: _69  and  _72
REMARK   30  A    between atoms: _72  and  _73
REMARK   31  A    between atoms: _73  and  _74
REMARK   32  A    between atoms: _77  and  _79
REMARK   33  A    between atoms: _79  and  _80
REMARK   34  A    between atoms: _79  and  _82
REMARK   35  A    between atoms: _82  and  _83
REMARK   36  A    between atoms: _89  and  _91
REMARK   37  A    between atoms: _91  and  _92
REMARK   38  A    between atoms: _91  and  _94
REMARK   39  A    between atoms: _94  and  _95
REMARK   40  A    between atoms: _98  and  _100
REMARK   41  A    between atoms: _100  and  _101
REMARK   42  A    between atoms: _100  and  _103
REMARK   43  A    between atoms: _103  and  _104
REMARK   44  A    between atoms: _109  and  _111
REMARK   45  A    between atoms: _111  and  _112
REMARK   46  A    between atoms: _111  and  _114
REMARK   47  A    between atoms: _114  and  _115
REMARK   48  A    between atoms: _115  and  _116
REMARK   49  A    between atoms: _121  and  _123
REMARK   50  A    between atoms: _123  and  _124
REMARK   51  A    between atoms: _123  and  _126
REMARK   52  A    between atoms: _126  and  _127
REMARK   53  A    between atoms: _129  and  _131
REMARK   54  A    between atoms: _131  and  _132
REMARK   55  A    between atoms: _131  and  _134
REMARK   56  A    between atoms: _134  and  _135
REMARK   57  A    between atoms: _141  and  _143
REMARK   58  A    between atoms: _143  and  _144
REMARK   59  A    between atoms: _143  and  _146
REMARK   60  A    between atoms: _146  and  _147
REMARK   61  A    between atoms: _150  and  _152
REMARK   62  A    between atoms: _152  and  _153
REMARK   63  A    between atoms: _152  and  _155
REMARK   64  A    between atoms: _155  and  _156
REMARK   65  A    between atoms: _159  and  _161
REMARK   66  A    between atoms: _161  and  _162
REMARK   67  A    between atoms: _161  and  _164
REMARK   68  A    between atoms: _164  and  _165
REMARK   69  A    between atoms: _168  and  _170
REMARK   70  A    between atoms: _170  and  _171
REMARK   71  A    between atoms: _174  and  _176
REMARK   72  A    between atoms: _176  and  _177
REMARK   73  A    between atoms: _179  and  _181
REMARK   74  A    between atoms: _181  and  _182
REMARK   75  A    between atoms: _181  and  _184
REMARK   76  A    between atoms: _184  and  _185
REMARK   77  A    between atoms: _185  and  _186
REMARK   78  A    between atoms: _188  and  _190
REMARK   79  A    between atoms: _190  and  _191
REMARK   80  A    between atoms: _190  and  _193
REMARK   81  A    between atoms: _193  and  _194
REMARK   82  A    between atoms: _197  and  _199
REMARK   83  A    between atoms: _199  and  _200
REMARK   84  A    between atoms: _199  and  _202
REMARK   85  A    between atoms: _202  and  _203
REMARK   86  A    between atoms: _203  and  _204
REMARK   87  A    between atoms: _206  and  _208
REMARK   88  A    between atoms: _208  and  _209
REMARK   89  A    between atoms: _208  and  _211
REMARK   90  A    between atoms: _211  and  _212
REMARK   91  A    between atoms: _215  and  _217
REMARK   92  A    between atoms: _217  and  _218
REMARK   93  A    between atoms: _217  and  _220
REMARK   94  A    between atoms: _220  and  _221
REMARK   95  A    between atoms: _221  and  _222
REMARK   96  A    between atoms: _222  and  _223
REMARK   97  A    between atoms: _232  and  _234
REMARK   98  A    between atoms: _234  and  _235
REMARK   99  A    between atoms: _234  and  _237
REMARK  100  A    between atoms: _237  and  _238
REMARK  101  A    between atoms: _244  and  _246
REMARK  102  A    between atoms: _246  and  _247
REMARK  103  A    between atoms: _246  and  _249
REMARK  104  A    between atoms: _249  and  _250
REMARK  105  A    between atoms: _250  and  _251
REMARK  106  A    between atoms: _254  and  _256
REMARK  107  A    between atoms: _256  and  _257
REMARK  108  A    between atoms: _259  and  _261
REMARK  109  A    between atoms: _261  and  _262
REMARK  110  A    between atoms: _261  and  _264
REMARK  111  A    between atoms: _264  and  _265
REMARK  112  A    between atoms: _268  and  _270
REMARK  113  A    between atoms: _270  and  _271
REMARK  114  A    between atoms: _274  and  _276
REMARK  115  A    between atoms: _276  and  _277
REMARK  116  A    between atoms: _276  and  _279
REMARK  117  A    between atoms: _279  and  _280
REMARK  118  A    between atoms: _280  and  _281
REMARK  119  A    between atoms: _284  and  _286
REMARK  120  A    between atoms: _286  and  _287
REMARK  121  A    between atoms: _286  and  _289
REMARK  122  A    between atoms: _289  and  _290
REMARK  123  A    between atoms: _295  and  _297
REMARK  124  A    between atoms: _297  and  _298
REMARK  125  A    between atoms: _300  and  _302
REMARK  126  A    between atoms: _302  and  _303
REMARK  127  A    between atoms: _302  and  _305
REMARK  128  A    between atoms: _305  and  _306
REMARK  129  A    between atoms: _309  and  _311
REMARK  130  A    between atoms: _311  and  _312
REMARK  131  A    between atoms: _311  and  _314
REMARK  132  A    between atoms: _314  and  _315
REMARK  133  A    between atoms: _318  and  _320
REMARK  134  A    between atoms: _320  and  _321
REMARK  135  A    between atoms: _320  and  _323
REMARK  136  A    between atoms: _323  and  _324
REMARK  137  A    between atoms: _329  and  _331
REMARK  138  A    between atoms: _331  and  _332
REMARK  139  A    between atoms: _331  and  _334
REMARK  140  A    between atoms: _334  and  _335
REMARK  141  A    between atoms: _335  and  _336
REMARK  142  A    between atoms: _341  and  _343
REMARK  143  A    between atoms: _343  and  _344
REMARK  144  A    between atoms: _343  and  _346
REMARK  145  A    between atoms: _346  and  _347
REMARK  146  A    between atoms: _347  and  _348
REMARK  147  A    between atoms: _348  and  _349
REMARK  148  A    between atoms: _358  and  _360
REMARK  149  A    between atoms: _360  and  _361
REMARK  150  A    between atoms: _360  and  _363
REMARK  151  A    between atoms: _363  and  _364
REMARK  152  A    between atoms: _369  and  _370
REMARK  153  A    between atoms: _372  and  _374
REMARK  154  A    between atoms: _374  and  _375
REMARK  155  A    between atoms: _374  and  _377
REMARK  156  A    between atoms: _377  and  _378
REMARK  157  A    between atoms: _381  and  _383
REMARK  158  A    between atoms: _383  and  _384
REMARK  159  A    between atoms: _383  and  _386
REMARK  160  A    between atoms: _386  and  _387
REMARK  161  A    between atoms: _389  and  _391
REMARK  162  A    between atoms: _391  and  _392
REMARK  163  A    between atoms: _391  and  _394
REMARK  164  A    between atoms: _394  and  _395
REMARK  165  A    between atoms: _400  and  _401
REMARK  166  A    between atoms: _403  and  _405
REMARK  167  A    between atoms: _405  and  _406
REMARK  168  A    between atoms: _405  and  _408
REMARK  169  A    between atoms: _408  and  _409
REMARK  170  A    between atoms: _412  and  _414
REMARK  171  A    between atoms: _414  and  _415
REMARK  172  A    between atoms: _414  and  _417
REMARK  173  A    between atoms: _417  and  _418
REMARK  174  A    between atoms: _424  and  _426
REMARK  175  A    between atoms: _426  and  _427
REMARK  176  A    between atoms: _429  and  _431
REMARK  177  A    between atoms: _431  and  _432
REMARK  178  A    between atoms: _431  and  _434
REMARK  179  A    between atoms: _434  and  _435
REMARK  180  A    between atoms: _438  and  _440
REMARK  181  A    between atoms: _440  and  _441
REMARK  182  A    between atoms: _440  and  _443
REMARK  183  A    between atoms: _446  and  _448
REMARK  184  A    between atoms: _448  and  _449
REMARK  185  A    between atoms: _452  and  _454
REMARK  186  A    between atoms: _454  and  _455
REMARK  187  A    between atoms: _454  and  _457
REMARK  188  A    between atoms: _457  and  _458
REMARK  189  A    between atoms: _463  and  _464
REMARK  190  A    between atoms: _466  and  _468
REMARK  191  A    between atoms: _468  and  _469
REMARK  192  A    between atoms: _468  and  _471
REMARK  193  A    between atoms: _471  and  _472
REMARK  194  A    between atoms: _477  and  _478
REMARK  195  A    between atoms: _480  and  _482
REMARK  196  A    between atoms: _482  and  _483
REMARK  197  A    between atoms: _485  and  _487
REMARK  198  A    between atoms: _487  and  _488
REMARK  199  A    between atoms: _487  and  _490
REMARK  200  A    between atoms: _490  and  _491
REMARK  201  A    between atoms: _491  and  _492
REMARK  202  A    between atoms: _492  and  _493
REMARK  203  A    between atoms: _493  and  _494
REMARK  204  A    between atoms: _498  and  _500
REMARK  205  A    between atoms: _500  and  _501
REMARK  206  A    between atoms: _503  and  _505
REMARK  207  A    between atoms: _505  and  _506
REMARK  208  A    between atoms: _505  and  _508
REMARK  209  A    between atoms: _508  and  _509
REMARK  210  A    between atoms: _512  and  _514
REMARK  211  A    between atoms: _514  and  _515
REMARK                            x       y       z     vdW  Elec       q    Type
REMARK                         _______ _______ _______ _____ _____    ______ ____
ROOT
ATOM      1  CB  PHE A   1      14.228   2.583  33.741  0.00  0.00    +0.051 C 
ENDROOT
BRANCH   1   2
ATOM      2  CG  PHE A   1      13.220   1.817  34.563  0.00  0.00    -0.020 A 
ATOM      3  CD2 PHE A   1      13.377   1.704  35.939  0.00  0.00    -0.004 A 
ATOM      4  CE2 PHE A   1      12.436   1.021  36.711  0.00  0.00    -0.000 A 
ATOM      5  CZ  PHE A   1      11.319   0.447  36.104  0.00  0.00    -0.000 A 
ATOM      6  CE1 PHE A   1      11.144   0.557  34.731  0.00  0.00    -0.000 A 
ATOM      7  CD1 PHE A   1      12.097   1.248  33.967  0.00  0.00    -0.004 A 
ENDBRANCH   1   2
BRANCH   1   8
ATOM      8  CA  PHE A   1      15.190   1.704  32.951  0.00  0.00    +0.137 C 
BRANCH   8   9
ATOM      9  N   PHE A   1      16.197   1.105  33.824  0.00  0.00    -0.239 NA
ATOM     10  H   PHE A   1      16.652   1.687  34.556  0.00  0.00    +0.142 HD
ENDBRANCH   8   9
BRANCH   8  11
ATOM     11  C   PHE A   1      15.789   2.553  31.836  0.00  0.00    +0.224 C 
ATOM     12  O   PHE A   1      16.849   3.159  31.994  0.00  0.00    -0.287 OA
ENDBRANCH   8  11
ENDBRANCH   1   8
TORSDOF 4
REMARK  Name = ../refined-set-2016/2y7i/2y7i_pocket.pdb
REMARK  211 active torsions:
REMARK  status: ('A' for Active; 'I' for Inactive)
REMARK    1  A    between atoms: _1  and  _3
REMARK    2  A    between atoms: _3  and  _4
REMARK    3  A    between atoms: _3  and  _6
REMARK    4  A    between atoms: _6  and  _7
REMARK    5  A    between atoms: _10  and  _12
REMARK    6  A    between atoms: _12  and  _13
REMARK    7  A    between atoms: _12  and  _15
REMARK    8  A    between atoms: _15  and  _16
REMARK    9  A    between atoms: _18  and  _20
REMARK   10  A    between atoms: _20  and  _21
REMARK   11  A    between atoms: _24  and  _26
REMARK   12  A    between atoms: _26  and  _27
REMARK   13  A    between atoms: _26  and  _29
REMARK   14  A    between atoms: _29  and  _30
REMARK   15  A    between atoms: _33  and  _35
REMARK   16  A    between atoms: _35  and  _36
REMARK   17  A    between atoms: _35  and  _38
REMARK   18  A    between atoms: _38  and  _39
REMARK   19  A    between atoms: _44  and  _45
REMARK   20  A    between atoms: _47  and  _49
REMARK   21  A    between atoms: _49  and  _50
REMARK   22  A    between atoms: _53  and  _55
REMARK   23  A    between atoms: _55  and  _56
REMARK   24  A    between atoms: _55  and  _58
REMARK   25  A    between atoms: _58  and  _59
REMARK   26  A    between atoms: _64  and  _65
REMARK   27  A    between atoms: _67  and  _69
REMARK   28  A    between atoms: _69  and  _70
REMARK   29  A    between atoms: _69  and  _72
REMARK   30  A    between atoms: _72  and  _73
REMARK   31  A    between atoms: _73  and  _74
REMARK   32  A    between atoms: _77  and  _79
REMARK   33  A    between atoms: _79  and  _80
REMARK   34  A    between atoms: _79  and  _82
REMARK   35  A    between atoms: _82  and  _83
REMARK   36  A    between atoms: _89  and  _91
REMARK   37  A    between atoms: _91  and  _92
REMARK   38  A    between atoms: _91  and  _94
REMARK   39  A    between atoms: _94  and  _95
REMARK   40  A    between atoms: _98  and  _100
REMARK   41  A    between atoms: _100  and  _101
REMARK   42  A    between atoms: _100  and  _103
REMARK   43  A    between atoms: _103  and  _104
REMARK   44  A    between atoms: _109  and  _111
REMARK   45  A    between atoms: _111  and  _112
REMARK   46  A    between atoms: _111  and  _114
REMARK   47  A    between atoms: _114  and  _115
REMARK   48  A    between atoms: _115  and  _116
REMARK   49  A    between atoms: _121  and  _123
REMARK   50  A    between atoms: _123  and  _124
REMARK   51  A    between atoms: _123  and  _126
REMARK   52  A    between atoms: _126  and  _127
REMARK   53  A    between atoms: _129  and  _131
REMARK   54  A    between atoms: _131  and  _132
REMARK   55  A    between atoms: _131  and  _134
REMARK   56  A    between atoms: _134  and  _135
REMARK   57  A    between atoms: _141  and  _143
REMARK   58  A    between atoms: _143  and  _144
REMARK   59  A    between atoms: _143  and  _146
REMARK   60  A    between atoms: _146  and  _147
REMARK   61  A    between atoms: _150  and  _152
REMARK   62  A    between atoms: _152  and  _153
REMARK   63  A    between atoms: _152  and  _155
REMARK   64  A    between atoms: _155  and  _156
REMARK   65  A    between atoms: _159  and  _161
REMARK   66  A    between atoms: _161  and  _162
REMARK   67  A    between atoms: _161  and  _164
REMARK   68  A    between atoms: _164  and  _165
REMARK   69  A    between atoms: _168  and  _170
REMARK   70  A    between atoms: _170  and  _171
REMARK   71  A    between atoms: _174  and  _176
REMARK   72  A    between atoms: _176  and  _177
REMARK   73  A    between atoms: _179  and  _181
REMARK   74  A    between atoms: _181  and  _182
REMARK   75  A    between atoms: _181  and  _184
REMARK   76  A    between atoms: _184  and  _185
REMARK   77  A    between atoms: _185  and  _186
REMARK   78  A    between atoms: _188  and  _190
REMARK   79  A    between atoms: _190  and  _191
REMARK   80  A    between atoms: _190  and  _193
REMARK   81  A    between atoms: _193  and  _194
REMARK   82  A    between atoms: _197  and  _199
REMARK   83  A    between atoms: _199  and  _200
REMARK   84  A    between atoms: _199  and  _202
REMARK   85  A    between atoms: _202  and  _203
REMARK   86  A    between atoms: _203  and  _204
REMARK   87  A    between atoms: _206  and  _208
REMARK   88  A    between atoms: _208  and  _209
REMARK   89  A    between atoms: _208  and  _211
REMARK   90  A    between atoms: _211  and  _212
REMARK   91  A    between atoms: _215  and  _217
REMARK   92  A    between atoms: _217  and  _218
REMARK   93  A    between atoms: _217  and  _220
REMARK   94  A    between atoms: _220  and  _221
REMARK   95  A    between atoms: _221  and  _222
REMARK   96  A    between atoms: _222  and  _223
REMARK   97  A    between atoms: _232  and  _234
REMARK   98  A    between atoms: _234  and  _235
REMARK   99  A    between atoms: _234  and  _237
REMARK  100  A    between atoms: _237  and  _238
REMARK  101  A    between atoms: _244  and  _246
REMARK  102  A    between atoms: _246  and  _247
REMARK  103  A    between atoms: _246  and  _249
REMARK  104  A    between atoms: _249  and  _250
REMARK  105  A    between atoms: _250  and  _251
REMARK  106  A    between atoms: _254  and  _256
REMARK  107  A    between atoms: _256  and  _257
REMARK  108  A    between atoms: _259  and  _261
REMARK  109  A    between atoms: _261  and  _262
REMARK  110  A    between atoms: _261  and  _264
REMARK  111  A    between atoms: _264  and  _265
REMARK  112  A    between atoms: _268  and  _270
REMARK  113  A    between atoms: _270  and  _271
REMARK  114  A    between atoms: _274  and  _276
REMARK  115  A    between atoms: _276  and  _277
REMARK  116  A    between atoms: _276  and  _279
REMARK  117  A    between atoms: _279  and  _280
REMARK  118  A    between atoms: _280  and  _281
REMARK  119  A    between atoms: _284  and  _286
REMARK  120  A    between atoms: _286  and  _287
REMARK  121  A    between atoms: _286  and  _289
REMARK  122  A    between atoms: _289  and  _290
REMARK  123  A    between atoms: _295  and  _297
REMARK  124  A    between atoms: _297  and  _298
REMARK  125  A    between atoms: _300  and  _302
REMARK  126  A    between atoms: _302  and  _303
REMARK  127  A    between atoms: _302  and  _305
REMARK  128  A    between atoms: _305  and  _306
REMARK  129  A    between atoms: _309  and  _311
REMARK  130  A    between atoms: _311  and  _312
REMARK  131  A    between atoms: _311  and  _314
REMARK  132  A    between atoms: _314  and  _315
REMARK  133  A    between atoms: _318  and  _320
REMARK  134  A    between atoms: _320  and  _321
REMARK  135  A    between atoms: _320  and  _323
REMARK  136  A    between atoms: _323  and  _324
REMARK  137  A    between atoms: _329  and  _331
REMARK  138  A    between atoms: _331  and  _332
REMARK  139  A    between atoms: _331  and  _334
REMARK  140  A    between atoms: _334  and  _335
REMARK  141  A    between atoms: _335  and  _336
REMARK  142  A    between atoms: _341  and  _343
REMARK  143  A    between atoms: _343  and  _344
REMARK  144  A    between atoms: _343  and  _346
REMARK  145  A    between atoms: _346  and  _347
REMARK  146  A    between atoms: _347  and  _348
REMARK  147  A    between atoms: _348  and  _349
REMARK  148  A    between atoms: _358  and  _360
REMARK  149  A    between atoms: _360  and  _361
REMARK  150  A    between atoms: _360  and  _363
REMARK  151  A    between atoms: _363  and  _364
REMARK  152  A    between atoms: _369  and  _370
REMARK  153  A    between atoms: _372  and  _374
REMARK  154  A    between atoms: _374  and  _375
REMARK  155  A    between atoms: _374  and  _377
REMARK  156  A    between atoms: _377  and  _378
REMARK  157  A    between atoms: _381  and  _383
REMARK  158  A    between atoms: _383  and  _384
REMARK  159  A    between atoms: _383  and  _386
REMARK  160  A    between atoms: _386  and  _387
REMARK  161  A    between atoms: _389  and  _391
REMARK  162  A    between atoms: _391  and  _392
REMARK  163  A    between atoms: _391  and  _394
REMARK  164  A    between atoms: _394  and  _395
REMARK  165  A    between atoms: _400  and  _401
REMARK  166  A    between atoms: _403  and  _405
REMARK  167  A    between atoms: _405  and  _406
REMARK  168  A    between atoms: _405  and  _408
REMARK  169  A    between atoms: _408  and  _409
REMARK  170  A    between atoms: _412  and  _414
REMARK  171  A    between atoms: _414  and  _415
REMARK  172  A    between atoms: _414  and  _417
REMARK  173  A    between atoms: _417  and  _418
REMARK  174  A    between atoms: _424  and  _426
REMARK  175  A    between atoms: _426  and  _427
REMARK  176  A    between atoms: _429  and  _431
REMARK  177  A    between atoms: _431  and  _432
REMARK  178  A    between atoms: _431  and  _434
REMARK  179  A    between atoms: _434  and  _435
REMARK  180  A    between atoms: _438  and  _440
REMARK  181  A    between atoms: _440  and  _441
REMARK  182  A    between atoms: _440  and  _443
REMARK  183  A    between atoms: _446  and  _448
REMARK  184  A    between atoms: _448  and  _449
REMARK  185  A    between atoms: _452  and  _454
REMARK  186  A    between atoms: _454  and  _455
REMARK  187  A    between atoms: _454  and  _457
REMARK  188  A    between atoms: _457  and  _458
REMARK  189  A    between atoms: _463  and  _464
REMARK  190  A    between atoms: _466  and  _468
REMARK  191  A    between atoms: _468  and  _469
REMARK  192  A    between atoms: _468  and  _471
REMARK  193  A    between atoms: _471  and  _472
REMARK  194  A    between atoms: _477  and  _478
REMARK  195  A    between atoms: _480  and  _482
REMARK  196  A    between atoms: _482  and  _483
REMARK  197  A    between atoms: _485  and  _487
REMARK  198  A    between atoms: _487  and  _488
REMARK  199  A    between atoms: _487  and  _490
REMARK  200  A    between atoms: _490  and  _491
REMARK  201  A    between atoms: _491  and  _492
REMARK  202  A    between atoms: _492  and  _493
REMARK  203  A    between atoms: _493  and  _494
REMARK  204  A    between atoms: _498  and  _500
REMARK  205  A    between atoms: _500  and  _501
REMARK  206  A    between atoms: _503  and  _505
REMARK  207  A    between atoms: _505  and  _506
REMARK  208  A    between atoms: _505  and  _508
REMARK  209  A    between atoms: _508  and  _509
REMARK  210  A    between atoms: _512  and  _514
REMARK  211  A    between atoms: _514  and  _515
REMARK                            x       y       z     vdW  Elec       q    Type
REMARK                         _______ _______ _______ _____ _____    ______ ____
ROOT
ATOM      1  C   GLU A   1       3.938   9.768  32.760  0.00  0.00    +0.238 C 
ATOM      2  N   GLY A   2       4.414   9.693  34.001  0.00  0.00    -0.296 N 
ATOM      3  H   GLY A   2       5.352  10.091  34.209  0.00  0.00    +0.150 HD
ATOM      4  O   GLU A   1       2.953   9.150  32.375  0.00  0.00    -0.274 OA
ENDROOT
BRANCH   1   5
ATOM      5  CA  GLU A   1       4.691  10.672  31.810  0.00  0.00    +0.145 C 
BRANCH   5   6
ATOM      6  N   GLU A   1       4.706  10.149  30.441  0.00  0.00    -0.238 NA
ATOM      7  H   GLU A   1       4.067  10.553  29.727  0.00  0.00    +0.142 HD
ENDBRANCH   5   6
BRANCH   5   8
ATOM      8  CB  GLU A   1       4.074  12.066  31.859  0.00  0.00    +0.038 C 
BRANCH   8   9
ATOM      9  CG  GLU A   1       5.037  13.162  31.501  0.00  0.00    +0.116 C 
BRANCH   9  10
ATOM     10  CD  GLU A   1       4.418  14.535  31.594  0.00  0.00    +0.365 C 
ATOM     11  OE2 GLU A   1       3.222  14.629  31.948  0.00  0.00    -0.246 OA
ATOM     12  OE1 GLU A   1       5.135  15.518  31.309  0.00  0.00    -0.246 OA
ENDBRANCH   9  10
ENDBRANCH   8   9
ENDBRANCH   5   8
ENDBRANCH   1   5
BRANCH   2  13
ATOM     13  CA  GLY A   2       3.657   9.069  35.073  0.00  0.00    +0.176 C 
BRANCH  13  14
ATOM     14  C   GLY A   2       2.602  10.057  35.515  0.00  0.00    +0.243 C 
ATOM     15  O   GLY A   2       2.904  11.226  35.761  0.00  0.00    -0.273 OA
ATOM     16  N   LEU A   3       1.355   9.611  35.600  0.00  0.00    -0.298 N 
ATOM     17  H   LEU A   3       1.146   8.609  35.414  0.00  0.00    +0.150 HD
BRANCH  16  18
ATOM     18  CA  LEU A   3       0.278  10.527  35.955  0.00  0.00    +0.137 C 
BRANCH  18  19
ATOM     19  C   LEU A   3      -0.403  10.178  37.278  0.00  0.00    +0.227 C 
ATOM     20  O   LEU A   3       0.019   9.245  37.985  0.00  0.00    -0.286 OA
ENDBRANCH  18  19
BRANCH  18  21
ATOM     21  CB  LEU A   3      -0.743  10.666  34.811  0.00  0.00    +0.028 C 
BRANCH  21  22
ATOM     22  CG  LEU A   3      -0.496  11.584  33.609  0.00  0.00    +0.002 C 
ATOM     23  CD2 LEU A   3       0.293  12.855  33.975  0.00  0.00    +0.000 C 
ATOM     24  CD1 LEU A   3       0.181  10.829  32.474  0.00  0.00    +0.000 C 
ENDBRANCH  21  22
ENDBRANCH  18  21
ENDBRANCH  16  18
ENDBRANCH  13  14
ENDBRANCH   2  13
TORSDOF 11
REMARK  Name = ../refined-set-2016/2y7i/2y7i_pocket.pdb
REMARK  211 active torsions:
REMARK  status: ('A' for Active; 'I' for Inactive)
REMARK    1  A    between atoms: _1  and  _3
REMARK    2  A    between atoms: _3  and  _4
REMARK    3  A    between atoms: _3  and  _6
REMARK    4  A    between atoms: _6  and  _7
REMARK    5  A    between atoms: _10  and  _12
REMARK    6  A    between atoms: _12  and  _13
REMARK    7  A    between atoms: _12  and  _15
REMARK    8  A    between atoms: _15  and  _16
REMARK    9  A    between atoms: _18  and  _20
REMARK   10  A    between atoms: _20  and  _21
REMARK   11  A    between atoms: _24  and  _26
REMARK   12  A    between atoms: _26  and  _27
REMARK   13  A    between atoms: _26  and  _29
REMARK   14  A    between atoms: _29  and  _30
REMARK   15  A    between atoms: _33  and  _35
REMARK   16  A    between atoms: _35  and  _36
REMARK   17  A    between atoms: _35  and  _38
REMARK   18  A    between atoms: _38  and  _39
REMARK   19  A    between atoms: _44  and  _45
REMARK   20  A    between atoms: _47  and  _49
REMARK   21  A    between atoms: _49  and  _50
REMARK   22  A    between atoms: _53  and  _55
REMARK   23  A    between atoms: _55  and  _56
REMARK   24  A    between atoms: _55  and  _58
REMARK   25  A    between atoms: _58  and  _59
REMARK   26  A    between atoms: _64  and  _65
REMARK   27  A    between atoms: _67  and  _69
REMARK   28  A    between atoms: _69  and  _70
REMARK   29  A    between atoms: _69  and  _72
REMARK   30  A    between atoms: _72  and  _73
REMARK   31  A    between atoms: _73  and  _74
REMARK   32  A    between atoms: _77  and  _79
REMARK   33  A    between atoms: _79  and  _80
REMARK   34  A    between atoms: _79  and  _82
REMARK   35  A    between atoms: _82  and  _83
REMARK   36  A    between atoms: _89  and  _91
REMARK   37  A    between atoms: _91  and  _92
REMARK   38  A    between atoms: _91  and  _94
REMARK   39  A    between atoms: _94  and  _95
REMARK   40  A    between atoms: _98  and  _100
REMARK   41  A    between atoms: _100  and  _101
REMARK   42  A    between atoms: _100  and  _103
REMARK   43  A    between atoms: _103  and  _104
REMARK   44  A    between atoms: _109  and  _111
REMARK   45  A    between atoms: _111  and  _112
REMARK   46  A    between atoms: _111  and  _114
REMARK   47  A    between atoms: _114  and  _115
REMARK   48  A    between atoms: _115  and  _116
REMARK   49  A    between atoms: _121  and  _123
REMARK   50  A    between atoms: _123  and  _124
REMARK   51  A    between atoms: _123  and  _126
REMARK   52  A    between atoms: _126  and  _127
REMARK   53  A    between atoms: _129  and  _131
REMARK   54  A    between atoms: _131  and  _132
REMARK   55  A    between atoms: _131  and  _134
REMARK   56  A    between atoms: _134  and  _135
REMARK   57  A    between atoms: _141  and  _143
REMARK   58  A    between atoms: _143  and  _144
REMARK   59  A    between atoms: _143  and  _146
REMARK   60  A    between atoms: _146  and  _147
REMARK   61  A    between atoms: _150  and  _152
REMARK   62  A    between atoms: _152  and  _153
REMARK   63  A    between atoms: _152  and  _155
REMARK   64  A    between atoms: _155  and  _156
REMARK   65  A    between atoms: _159  and  _161
REMARK   66  A    between atoms: _161  and  _162
REMARK   67  A    between atoms: _161  and  _164
REMARK   68  A    between atoms: _164  and  _165
REMARK   69  A    between atoms: _168  and  _170
REMARK   70  A    between atoms: _170  and  _171
REMARK   71  A    between atoms: _174  and  _176
REMARK   72  A    between atoms: _176  and  _177
REMARK   73  A    between atoms: _179  and  _181
REMARK   74  A    between atoms: _181  and  _182
REMARK   75  A    between atoms: _181  and  _184
REMARK   76  A    between atoms: _184  and  _185
REMARK   77  A    between atoms: _185  and  _186
REMARK   78  A    between atoms: _188  and  _190
REMARK   79  A    between atoms: _190  and  _191
REMARK   80  A    between atoms: _190  and  _193
REMARK   81  A    between atoms: _193  and  _194
REMARK   82  A    between atoms: _197  and  _199
REMARK   83  A    between atoms: _199  and  _200
REMARK   84  A    between atoms: _199  and  _202
REMARK   85  A    between atoms: _202  and  _203
REMARK   86  A    between atoms: _203  and  _204
REMARK   87  A    between atoms: _206  and  _208
REMARK   88  A    between atoms: _208  and  _209
REMARK   89  A    between atoms: _208  and  _211
REMARK   90  A    between atoms: _211  and  _212
REMARK   91  A    between atoms: _215  and  _217
REMARK   92  A    between atoms: _217  and  _218
REMARK   93  A    between atoms: _217  and  _220
REMARK   94  A    between atoms: _220  and  _221
REMARK   95  A    between atoms: _221  and  _222
REMARK   96  A    between atoms: _222  and  _223
REMARK   97  A    between atoms: _232  and  _234
REMARK   98  A    between atoms: _234  and  _235
REMARK   99  A    between atoms: _234  and  _237
REMARK  100  A    between atoms: _237  and  _238
REMARK  101  A    between atoms: _244  and  _246
REMARK  102  A    between atoms: _246  and  _247
REMARK  103  A    between atoms: _246  and  _249
REMARK  104  A    between atoms: _249  and  _250
REMARK  105  A    between atoms: _250  and  _251
REMARK  106  A    between atoms: _254  and  _256
REMARK  107  A    between atoms: _256  and  _257
REMARK  108  A    between atoms: _259  and  _261
REMARK  109  A    between atoms: _261  and  _262
REMARK  110  A    between atoms: _261  and  _264
REMARK  111  A    between atoms: _264  and  _265
REMARK  112  A    between atoms: _268  and  _270
REMARK  113  A    between atoms: _270  and  _271
REMARK  114  A    between atoms: _274  and  _276
REMARK  115  A    between atoms: _276  and  _277
REMARK  116  A    between atoms: _276  and  _279
REMARK  117  A    between atoms: _279  and  _280
REMARK  118  A    between atoms: _280  and  _281
REMARK  119  A    between atoms: _284  and  _286
REMARK  120  A    between atoms: _286  and  _287
REMARK  121  A    between atoms: _286  and  _289
REMARK  122  A    between atoms: _289  and  _290
REMARK  123  A    between atoms: _295  and  _297
REMARK  124  A    between atoms: _297  and  _298
REMARK  125  A    between atoms: _300  and  _302
REMARK  126  A    between atoms: _302  and  _303
REMARK  127  A    between atoms: _302  and  _305
REMARK  128  A    between atoms: _305  and  _306
REMARK  129  A    between atoms: _309  and  _311
REMARK  130  A    between atoms: _311  and  _312
REMARK  131  A    between atoms: _311  and  _314
REMARK  132  A    between atoms: _314  and  _315
REMARK  133  A    between atoms: _318  and  _320
REMARK  134  A    between atoms: _320  and  _321
REMARK  135  A    between atoms: _320  and  _323
REMARK  136  A    between atoms: _323  and  _324
REMARK  137  A    between atoms: _329  and  _331
REMARK  138  A    between atoms: _331  and  _332
REMARK  139  A    between atoms: _331  and  _334
REMARK  140  A    between atoms: _334  and  _335
REMARK  141  A    between atoms: _335  and  _336
REMARK  142  A    between atoms: _341  and  _343
REMARK  143  A    between atoms: _343  and  _344
REMARK  144  A    between atoms: _343  and  _346
REMARK  145  A    between atoms: _346  and  _347
REMARK  146  A    between atoms: _347  and  _348
REMARK  147  A    between atoms: _348  and  _349
REMARK  148  A    between atoms: _358  and  _360
REMARK  149  A    between atoms: _360  and  _361
REMARK  150  A    between atoms: _360  and  _363
REMARK  151  A    between atoms: _363  and  _364
REMARK  152  A    between atoms: _369  and  _370
REMARK  153  A    between atoms: _372  and  _374
REMARK  154  A    between atoms: _374  and  _375
REMARK  155  A    between atoms: _374  and  _377
REMARK  156  A    between atoms: _377  and  _378
REMARK  157  A    between atoms: _381  and  _383
REMARK  158  A    between atoms: _383  and  _384
REMARK  159  A    between atoms: _383  and  _386
REMARK  160  A    between atoms: _386  and  _387
REMARK  161  A    between atoms: _389  and  _391
REMARK  162  A    between atoms: _391  and  _392
REMARK  163  A    between atoms: _391  and  _394
REMARK  164  A    between atoms: _394  and  _395
REMARK  165  A    between atoms: _400  and  _401
REMARK  166  A    between atoms: _403  and  _405
REMARK  167  A    between atoms: _405  and  _406
REMARK  168  A    between atoms: _405  and  _408
REMARK  169  A    between atoms: _408  and  _409
REMARK  170  A    between atoms: _412  and  _414
REMARK  171  A    between atoms: _414  and  _415
REMARK  172  A    between atoms: _414  and  _417
REMARK  173  A    between atoms: _417  and  _418
REMARK  174  A    between atoms: _424  and  _426
REMARK  175  A    between atoms: _426  and  _427
REMARK  176  A    between atoms: _429  and  _431
REMARK  177  A    between atoms: _431  and  _432
REMARK  178  A    between atoms: _431  and  _434
REMARK  179  A    between atoms: _434  and  _435
REMARK  180  A    between atoms: _438  and  _440
REMARK  181  A    between atoms: _440  and  _441
REMARK  182  A    between atoms: _440  and  _443
REMARK  183  A    between atoms: _446  and  _448
REMARK  184  A    between atoms: _448  and  _449
REMARK  185  A    between atoms: _452  and  _454
REMARK  186  A    between atoms: _454  and  _455
REMARK  187  A    between atoms: _454  and  _457
REMARK  188  A    between atoms: _457  and  _458
REMARK  189  A    between atoms: _463  and  _464
REMARK  190  A    between atoms: _466  and  _468
REMARK  191  A    between atoms: _468  and  _469
REMARK  192  A    between atoms: _468  and  _471
REMARK  193  A    between atoms: _471  and  _472
REMARK  194  A    between atoms: _477  and  _478
REMARK  195  A    between atoms: _480  and  _482
REMARK  196  A    between atoms: _482  and  _483
REMARK  197  A    between atoms: _485  and  _487
REMARK  198  A    between atoms: _487  and  _488
REMARK  199  A    between atoms: _487  and  _490
REMARK  200  A    between atoms: _490  and  _491
REMARK  201  A    between atoms: _491  and  _492
REMARK  202  A    between atoms: _492  and  _493
REMARK  203  A    between atoms: _493  and  _494
REMARK  204  A    between atoms: _498  and  _500
REMARK  205  A    between atoms: _500  and  _501
REMARK  206  A    between atoms: _503  and  _505
REMARK  207  A    between atoms: _505  and  _506
REMARK  208  A    between atoms: _505  and  _508
REMARK  209  A    between atoms: _508  and  _509
REMARK  210  A    between atoms: _512  and  _514
REMARK  211  A    between atoms: _514  and  _515
REMARK                            x       y       z     vdW  Elec       q    Type
REMARK                         _______ _______ _______ _____ _____    ______ ____
ROOT
ATOM      1  CA  ALA A   1      -3.963   7.752  40.287  0.00  0.00    +0.133 C 
ATOM      2  CB  ALA A   1      -3.292   6.843  41.276  0.00  0.00    +0.027 C 
ENDROOT
BRANCH   1   3
ATOM      3  N   ALA A   1      -3.194   8.963  40.102  0.00  0.00    -0.239 NA
ATOM      4  H   ALA A   1      -2.763   9.418  40.932  0.00  0.00    +0.142 HD
ENDBRANCH   1   3
BRANCH   1   5
ATOM      5  C   ALA A   1      -5.355   8.147  40.768  0.00  0.00    +0.224 C 
ATOM      6  O   ALA A   1      -5.520   9.144  41.463  0.00  0.00    -0.287 OA
ENDBRANCH   1   5
TORSDOF 2
REMARK  Name = ../refined-set-2016/2y7i/2y7i_pocket.pdb
REMARK  211 active torsions:
REMARK  status: ('A' for Active; 'I' for Inactive)
REMARK    1  A    between atoms: _1  and  _3
REMARK    2  A    between atoms: _3  and  _4
REMARK    3  A    between atoms: _3  and  _6
REMARK    4  A    between atoms: _6  and  _7
REMARK    5  A    between atoms: _10  and  _12
REMARK    6  A    between atoms: _12  and  _13
REMARK    7  A    between atoms: _12  and  _15
REMARK    8  A    between atoms: _15  and  _16
REMARK    9  A    between atoms: _18  and  _20
REMARK   10  A    between atoms: _20  and  _21
REMARK   11  A    between atoms: _24  and  _26
REMARK   12  A    between atoms: _26  and  _27
REMARK   13  A    between atoms: _26  and  _29
REMARK   14  A    between atoms: _29  and  _30
REMARK   15  A    between atoms: _33  and  _35
REMARK   16  A    between atoms: _35  and  _36
REMARK   17  A    between atoms: _35  and  _38
REMARK   18  A    between atoms: _38  and  _39
REMARK   19  A    between atoms: _44  and  _45
REMARK   20  A    between atoms: _47  and  _49
REMARK   21  A    between atoms: _49  and  _50
REMARK   22  A    between atoms: _53  and  _55
REMARK   23  A    between atoms: _55  and  _56
REMARK   24  A    between atoms: _55  and  _58
REMARK   25  A    between atoms: _58  and  _59
REMARK   26  A    between atoms: _64  and  _65
REMARK   27  A    between atoms: _67  and  _69
REMARK   28  A    between atoms: _69  and  _70
REMARK   29  A    between atoms: _69  and  _72
REMARK   30  A    between atoms: _72  and  _73
REMARK   31  A    between atoms: _73  and  _74
REMARK   32  A    between atoms: _77  and  _79
REMARK   33  A    between atoms: _79  and  _80
REMARK   34  A    between atoms: _79  and  _82
REMARK   35  A    between atoms: _82  and  _83
REMARK   36  A    between atoms: _89  and  _91
REMARK   37  A    between atoms: _91  and  _92
REMARK   38  A    between atoms: _91  and  _94
REMARK   39  A    between atoms: _94  and  _95
REMARK   40  A    between atoms: _98  and  _100
REMARK   41  A    between atoms: _100  and  _101
REMARK   42  A    between atoms: _100  and  _103
REMARK   43  A    between atoms: _103  and  _104
REMARK   44  A    between atoms: _109  and  _111
REMARK   45  A    between atoms: _111  and  _112
REMARK   46  A    between atoms: _111  and  _114
REMARK   47  A    between atoms: _114  and  _115
REMARK   48  A    between atoms: _115  and  _116
REMARK   49  A    between atoms: _121  and  _123
REMARK   50  A    between atoms: _123  and  _124
REMARK   51  A    between atoms: _123  and  _126
REMARK   52  A    between atoms: _126  and  _127
REMARK   53  A    between atoms: _129  and  _131
REMARK   54  A    between atoms: _131  and  _132
REMARK   55  A    between atoms: _131  and  _134
REMARK   56  A    between atoms: _134  and  _135
REMARK   57  A    between atoms: _141  and  _143
REMARK   58  A    between atoms: _143  and  _144
REMARK   59  A    between atoms: _143  and  _146
REMARK   60  A    between atoms: _146  and  _147
REMARK   61  A    between atoms: _150  and  _152
REMARK   62  A    between atoms: _152  and  _153
REMARK   63  A    between atoms: _152  and  _155
REMARK   64  A    between atoms: _155  and  _156
REMARK   65  A    between atoms: _159  and  _161
REMARK   66  A    between atoms: _161  and  _162
REMARK   67  A    between atoms: _161  and  _164
REMARK   68  A    between atoms: _164  and  _165
REMARK   69  A    between atoms: _168  and  _170
REMARK   70  A    between atoms: _170  and  _171
REMARK   71  A    between atoms: _174  and  _176
REMARK   72  A    between atoms: _176  and  _177
REMARK   73  A    between atoms: _179  and  _181
REMARK   74  A    between atoms: _181  and  _182
REMARK   75  A    between atoms: _181  and  _184
REMARK   76  A    between atoms: _184  and  _185
REMARK   77  A    between atoms: _185  and  _186
REMARK   78  A    between atoms: _188  and  _190
REMARK   79  A    between atoms: _190  and  _191
REMARK   80  A    between atoms: _190  and  _193
REMARK   81  A    between atoms: _193  and  _194
REMARK   82  A    between atoms: _197  and  _199
REMARK   83  A    between atoms: _199  and  _200
REMARK   84  A    between atoms: _199  and  _202
REMARK   85  A    between atoms: _202  and  _203
REMARK   86  A    between atoms: _203  and  _204
REMARK   87  A    between atoms: _206  and  _208
REMARK   88  A    between atoms: _208  and  _209
REMARK   89  A    between atoms: _208  and  _211
REMARK   90  A    between atoms: _211  and  _212
REMARK   91  A    between atoms: _215  and  _217
REMARK   92  A    between atoms: _217  and  _218
REMARK   93  A    between atoms: _217  and  _220
REMARK   94  A    between atoms: _220  and  _221
REMARK   95  A    between atoms: _221  and  _222
REMARK   96  A    between atoms: _222  and  _223
REMARK   97  A    between atoms: _232  and  _234
REMARK   98  A    between atoms: _234  and  _235
REMARK   99  A    between atoms: _234  and  _237
REMARK  100  A    between atoms: _237  and  _238
REMARK  101  A    between atoms: _244  and  _246
REMARK  102  A    between atoms: _246  and  _247
REMARK  103  A    between atoms: _246  and  _249
REMARK  104  A    between atoms: _249  and  _250
REMARK  105  A    between atoms: _250  and  _251
REMARK  106  A    between atoms: _254  and  _256
REMARK  107  A    between atoms: _256  and  _257
REMARK  108  A    between atoms: _259  and  _261
REMARK  109  A    between atoms: _261  and  _262
REMARK  110  A    between atoms: _261  and  _264
REMARK  111  A    between atoms: _264  and  _265
REMARK  112  A    between atoms: _268  and  _270
REMARK  113  A    between atoms: _270  and  _271
REMARK  114  A    between atoms: _274  and  _276
REMARK  115  A    between atoms: _276  and  _277
REMARK  116  A    between atoms: _276  and  _279
REMARK  117  A    between atoms: _279  and  _280
REMARK  118  A    between atoms: _280  and  _281
REMARK  119  A    between atoms: _284  and  _286
REMARK  120  A    between atoms: _286  and  _287
REMARK  121  A    between atoms: _286  and  _289
REMARK  122  A    between atoms: _289  and  _290
REMARK  123  A    between atoms: _295  and  _297
REMARK  124  A    between atoms: _297  and  _298
REMARK  125  A    between atoms: _300  and  _302
REMARK  126  A    between atoms: _302  and  _303
REMARK  127  A    between atoms: _302  and  _305
REMARK  128  A    between atoms: _305  and  _306
REMARK  129  A    between atoms: _309  and  _311
REMARK  130  A    between atoms: _311  and  _312
REMARK  131  A    between atoms: _311  and  _314
REMARK  132  A    between atoms: _314  and  _315
REMARK  133  A    between atoms: _318  and  _320
REMARK  134  A    between atoms: _320  and  _321
REMARK  135  A    between atoms: _320  and  _323
REMARK  136  A    between atoms: _323  and  _324
REMARK  137  A    between atoms: _329  and  _331
REMARK  138  A    between atoms: _331  and  _332
REMARK  139  A    between atoms: _331  and  _334
REMARK  140  A    between atoms: _334  and  _335
REMARK  141  A    between atoms: _335  and  _336
REMARK  142  A    between atoms: _341  and  _343
REMARK  143  A    between atoms: _343  and  _344
REMARK  144  A    between atoms: _343  and  _346
REMARK  145  A    between atoms: _346  and  _347
REMARK  146  A    between atoms: _347  and  _348
REMARK  147  A    between atoms: _348  and  _349
REMARK  148  A    between atoms: _358  and  _360
REMARK  149  A    between atoms: _360  and  _361
REMARK  150  A    between atoms: _360  and  _363
REMARK  151  A    between atoms: _363  and  _364
REMARK  152  A    between atoms: _369  and  _370
REMARK  153  A    between atoms: _372  and  _374
REMARK  154  A    between atoms: _374  and  _375
REMARK  155  A    between atoms: _374  and  _377
REMARK  156  A    between atoms: _377  and  _378
REMARK  157  A    between atoms: _381  and  _383
REMARK  158  A    between atoms: _383  and  _384
REMARK  159  A    between atoms: _383  and  _386
REMARK  160  A    between atoms: _386  and  _387
REMARK  161  A    between atoms: _389  and  _391
REMARK  162  A    between atoms: _391  and  _392
REMARK  163  A    between atoms: _391  and  _394
REMARK  164  A    between atoms: _394  and  _395
REMARK  165  A    between atoms: _400  and  _401
REMARK  166  A    between atoms: _403  and  _405
REMARK  167  A    between atoms: _405  and  _406
REMARK  168  A    between atoms: _405  and  _408
REMARK  169  A    between atoms: _408  and  _409
REMARK  170  A    between atoms: _412  and  _414
REMARK  171  A    between atoms: _414  and  _415
REMARK  172  A    between atoms: _414  and  _417
REMARK  173  A    between atoms: _417  and  _418
REMARK  174  A    between atoms: _424  and  _426
REMARK  175  A    between atoms: _426  and  _427
REMARK  176  A    between atoms: _429  and  _431
REMARK  177  A    between atoms: _431  and  _432
REMARK  178  A    between atoms: _431  and  _434
REMARK  179  A    between atoms: _434  and  _435
REMARK  180  A    between atoms: _438  and  _440
REMARK  181  A    between atoms: _440  and  _441
REMARK  182  A    between atoms: _440  and  _443
REMARK  183  A    between atoms: _446  and  _448
REMARK  184  A    between atoms: _448  and  _449
REMARK  185  A    between atoms: _452  and  _454
REMARK  186  A    between atoms: _454  and  _455
REMARK  187  A    between atoms: _454  and  _457
REMARK  188  A    between atoms: _457  and  _458
REMARK  189  A    between atoms: _463  and  _464
REMARK  190  A    between atoms: _466  and  _468
REMARK  191  A    between atoms: _468  and  _469
REMARK  192  A    between atoms: _468  and  _471
REMARK  193  A    between atoms: _471  and  _472
REMARK  194  A    between atoms: _477  and  _478
REMARK  195  A    between atoms: _480  and  _482
REMARK  196  A    between atoms: _482  and  _483
REMARK  197  A    between atoms: _485  and  _487
REMARK  198  A    between atoms: _487  and  _488
REMARK  199  A    between atoms: _487  and  _490
REMARK  200  A    between atoms: _490  and  _491
REMARK  201  A    between atoms: _491  and  _492
REMARK  202  A    between atoms: _492  and  _493
REMARK  203  A    between atoms: _493  and  _494
REMARK  204  A    between atoms: _498  and  _500
REMARK  205  A    between atoms: _500  and  _501
REMARK  206  A    between atoms: _503  and  _505
REMARK  207  A    between atoms: _505  and  _506
REMARK  208  A    between atoms: _505  and  _508
REMARK  209  A    between atoms: _508  and  _509
REMARK  210  A    between atoms: _512  and  _514
REMARK  211  A    between atoms: _514  and  _515
REMARK                            x       y       z     vdW  Elec       q    Type
REMARK                         _______ _______ _______ _____ _____    ______ ____
ROOT
ATOM      1  CA  HIS A   6      -1.091   2.044  43.673  0.00  0.00    +0.155 C 
ENDROOT
BRANCH   1   2
ATOM      2  C   HIS A   6      -1.204   1.227  44.940  0.00  0.00    +0.241 C 
ATOM      3  O   HIS A   6      -1.734   1.708  45.946  0.00  0.00    -0.273 OA
ATOM      4  N   GLN A   7      -0.698  -0.004  44.898  0.00  0.00    -0.297 N 
ATOM      5  H   GLN A   7      -0.281  -0.354  44.012  0.00  0.00    +0.150 HD
BRANCH   4   6
ATOM      6  CA  GLN A   7      -0.716  -0.866  46.062  0.00  0.00    +0.149 C 
BRANCH   6   7
ATOM      7  C   GLN A   7       0.119  -0.250  47.183  0.00  0.00    +0.241 C 
ATOM      8  O   GLN A   7      -0.327  -0.188  48.328  0.00  0.00    -0.273 OA
ATOM      9  N   ARG A   8       1.317   0.224  46.842  0.00  0.00    -0.297 N 
ATOM     10  H   ARG A   8       1.615   0.187  45.846  0.00  0.00    +0.150 HD
BRANCH   9  11
ATOM     11  CA  ARG A   8       2.219   0.794  47.838  0.00  0.00    +0.149 C 
BRANCH  11  12
ATOM     12  C   ARG A   8       1.629   2.073  48.434  0.00  0.00    +0.241 C 
ATOM     13  O   ARG A   8       1.623   2.245  49.662  0.00  0.00    -0.273 OA
ATOM     14  N   TYR A   9       1.111   2.947  47.571  0.00  0.00    -0.298 N 
ATOM     15  H   TYR A   9       1.174   2.757  46.551  0.00  0.00    +0.150 HD
BRANCH  14  16
ATOM     16  CA  TYR A   9       0.455   4.169  48.035  0.00  0.00    +0.141 C 
BRANCH  16  17
ATOM     17  C   TYR A   9      -0.668   3.895  49.032  0.00  0.00    +0.227 C 
ATOM     18  O   TYR A   9      -0.677   4.493  50.113  0.00  0.00    -0.286 OA
ENDBRANCH  16  17
BRANCH  16  19
ATOM     19  CB  TYR A   9      -0.059   5.065  46.885  0.00  0.00    +0.054 C 
BRANCH  19  20
ATOM     20  CG  TYR A   9      -0.862   6.230  47.427  0.00  0.00    -0.020 A 
ATOM     21  CD2 TYR A   9      -0.231   7.344  47.989  0.00  0.00    -0.001 A 
ATOM     22  CE2 TYR A   9      -0.970   8.397  48.526  0.00  0.00    +0.036 A 
ATOM     23  CZ  TYR A   9      -2.351   8.320  48.523  0.00  0.00    +0.134 A 
ATOM     24  CE1 TYR A   9      -2.995   7.222  47.982  0.00  0.00    +0.036 A 
ATOM     25  CD1 TYR A   9      -2.249   6.182  47.447  0.00  0.00    -0.001 A 
BRANCH  23  26
ATOM     26  OH  TYR A   9      -3.101   9.338  49.052  0.00  0.00    -0.506 OA
ATOM     27  HH  TYR A   9      -2.500  10.045  49.396  0.00  0.00    +0.292 HD
ENDBRANCH  23  26
ENDBRANCH  19  20
ENDBRANCH  16  19
ENDBRANCH  14  16
ENDBRANCH  11  12
BRANCH  11  28
ATOM     28  CB  ARG A   8       3.614   1.041  47.253  0.00  0.00    +0.033 C 
BRANCH  28  29
ATOM     29  CG  ARG A   8       4.671   1.325  48.315  0.00  0.00    +0.045 C 
BRANCH  29  30
ATOM     30  CD  ARG A   8       6.092   1.326  47.734  0.00  0.00    +0.174 C 
BRANCH  30  31
ATOM     31  NE  ARG A   8       6.414   2.544  46.981  0.00  0.00    -0.265 N 
ATOM     32  CZ  ARG A   8       6.935   3.649  47.512  0.00  0.00    +0.342 C 
ATOM     33  NH2 ARG A   8       7.179   3.724  48.817  0.00  0.00    -0.292 N 
ATOM     34 HH21 ARG A   8       6.963   2.915  49.434  0.00  0.00    +0.255 HD
ATOM     35 HH22 ARG A   8       7.586   4.592  49.221  0.00  0.00    +0.255 HD
ATOM     36  NH1 ARG A   8       7.207   4.692  46.733  0.00  0.00    -0.292 N 
ATOM     37 HH11 ARG A   8       7.614   5.556  47.144  0.00  0.00    +0.255 HD
ATOM     38 HH12 ARG A   8       7.013   4.643  45.712  0.00  0.00    +0.255 HD
ATOM     39  HE  ARG A   8       6.221   2.544  45.959  0.00  0.00    +0.259 HD
ENDBRANCH  30  31
ENDBRANCH  29  30
ENDBRANCH  28  29
ENDBRANCH  11  28
ENDBRANCH   9  11
ENDBRANCH   6   7
BRANCH   6  40
ATOM     40  CB  GLN A   7      -0.190  -2.261  45.707  0.00  0.00    +0.039 C 
BRANCH  40  41
ATOM     41  CG  GLN A   7      -0.025  -3.191  46.906  0.00  0.00    +0.087 C 
BRANCH  41  42
ATOM     42  CD  GLN A   7       0.381  -4.601  46.481  0.00  0.00    +0.219 C 
ATOM     43  NE2 GLN A   7      -0.457  -5.582  46.815  0.00  0.00    -0.329 N 
ATOM     44 HE21 GLN A   7      -1.334  -5.364  47.330  0.00  0.00    +0.145 HD
ATOM     45 HE22 GLN A   7      -0.234  -6.565  46.561  0.00  0.00    +0.145 HD
ATOM     46  OE1 GLN A   7       1.437  -4.802  45.869  0.00  0.00    -0.275 OA
ENDBRANCH  41  42
ENDBRANCH  40  41
ENDBRANCH   6  40
ENDBRANCH   4   6
ENDBRANCH   1   2
BRANCH   1  49
ATOM     47  C   THR A   5       1.335   2.221  43.622  0.00  0.00    +0.243 C 
ATOM     48  O   THR A   5       1.387   2.668  44.769  0.00  0.00    -0.273 OA
ATOM     49  N   HIS A   6       0.199   1.868  43.030  0.00  0.00    -0.297 N 
ATOM     50  H   HIS A   6       0.235   1.453  42.077  0.00  0.00    +0.150 HD
BRANCH  47  51
ATOM     51  CA  THR A   5       2.597   2.044  42.792  0.00  0.00    +0.176 C 
BRANCH  51  54
ATOM     52  C   THR A   4       2.320  -0.396  42.625  0.00  0.00    +0.243 C 
ATOM     53  O   THR A   4       2.339  -0.576  43.850  0.00  0.00    -0.273 OA
ATOM     54  N   THR A   5       2.540   0.782  42.047  0.00  0.00    -0.295 N 
ATOM     55  H   THR A   5       2.678   0.809  41.017  0.00  0.00    +0.150 HD
BRANCH  52  56
ATOM     56  CA  THR A   4       2.003  -1.537  41.657  0.00  0.00    +0.176 C 
BRANCH  56  58
ATOM     57  C   GLY A   3       3.277  -3.581  42.114  0.00  0.00    +0.243 C 
ATOM     58  N   THR A   4       2.146  -2.886  42.230  0.00  0.00    -0.295 N 
ATOM     59  H   THR A   4       1.343  -3.308  42.739  0.00  0.00    +0.150 HD
ATOM     60  O   GLY A   3       4.334  -3.097  41.662  0.00  0.00    -0.273 OA
BRANCH  57  61
ATOM     61  CA  GLY A   3       3.242  -5.017  42.619  0.00  0.00    +0.176 C 
BRANCH  61  63
ATOM     62  C   ASN A   2       1.002  -5.986  42.401  0.00  0.00    +0.241 C 
ATOM     63  N   GLY A   3       1.963  -5.491  43.174  0.00  0.00    -0.295 N 
ATOM     64  H   GLY A   3       1.807  -5.437  44.201  0.00  0.00    +0.150 HD
ATOM     65  O   ASN A   2       1.066  -5.996  41.178  0.00  0.00    -0.273 OA
BRANCH  62  66
ATOM     66  CA  ASN A   2      -0.210  -6.576  43.097  0.00  0.00    +0.158 C 
BRANCH  66  69
ATOM     67  C   GLU A   1      -1.791  -4.940  42.150  0.00  0.00    +0.238 C 
ATOM     68  O   GLU A   1      -1.179  -3.968  42.591  0.00  0.00    -0.274 OA
ATOM     69  N   ASN A   2      -1.437  -6.206  42.384  0.00  0.00    -0.297 N 
ATOM     70  H   ASN A   2      -2.061  -6.966  42.045  0.00  0.00    +0.150 HD
BRANCH  67  71
ATOM     71  CA  GLU A   1      -3.024  -4.734  41.275  0.00  0.00    +0.145 C 
BRANCH  71  72
ATOM     72  N   GLU A   1      -3.881  -3.660  41.782  0.00  0.00    -0.238 NA
ATOM     73  H   GLU A   1      -3.684  -2.675  41.511  0.00  0.00    +0.142 HD
ENDBRANCH  71  72
BRANCH  71  74
ATOM     74  CB  GLU A   1      -2.579  -4.396  39.855  0.00  0.00    +0.038 C 
BRANCH  74  75
ATOM     75  CG  GLU A   1      -2.273  -5.568  38.940  0.00  0.00    +0.116 C 
BRANCH  75  76
ATOM     76  CD  GLU A   1      -2.233  -5.130  37.479  0.00  0.00    +0.365 C 
ATOM     77  OE2 GLU A   1      -1.609  -4.098  37.224  0.00  0.00    -0.246 OA
ATOM     78  OE1 GLU A   1      -2.869  -5.771  36.609  0.00  0.00    -0.246 OA
ENDBRANCH  75  76
ENDBRANCH  74  75
ENDBRANCH  71  74
ENDBRANCH  67  71
ENDBRANCH  66  69
BRANCH  66  79
ATOM     79  CB  ASN A   2      -0.050  -8.099  43.131  0.00  0.00    +0.114 C 
BRANCH  79  80
ATOM     80  CG  ASN A   2      -0.782  -8.737  44.282  0.00  0.00    +0.222 C 
ATOM     81  OD1 ASN A   2      -0.686  -8.273  45.419  0.00  0.00    -0.275 OA
ATOM     82  ND2 ASN A   2      -1.512  -9.818  44.000  0.00  0.00    -0.329 N 
ATOM     83 HD21 ASN A   2      -2.031 -10.307  44.757  0.00  0.00    +0.145 HD
ATOM     84 HD22 ASN A   2      -1.562 -10.172  43.023  0.00  0.00    +0.145 HD
ENDBRANCH  79  80
ENDBRANCH  66  79
ENDBRANCH  62  66
ENDBRANCH  61  63
ENDBRANCH  57  61
ENDBRANCH  56  58
BRANCH  56  85
ATOM     85  CB  THR A   4       0.582  -1.299  41.053  0.00  0.00    +0.137 C 
ATOM     86  CG2 THR A   4       0.274  -2.337  40.003  0.00  0.00    +0.034 C 
BRANCH  85  87
ATOM     87  OG1 THR A   4      -0.411  -1.341  42.091  0.00  0.00    -0.382 OA
ATOM     88  HG1 THR A   4      -0.389  -2.228  42.531  0.00  0.00    +0.210 HD
ENDBRANCH  85  87
ENDBRANCH  56  85
ENDBRANCH  52  56
ENDBRANCH  51  54
BRANCH  51  89
ATOM     89  CB  THR A   5       2.682   3.229  41.815  0.00  0.00    +0.137 C 
ATOM     90  CG2 THR A   5       4.045   3.257  41.124  0.00  0.00    +0.034 C 
BRANCH  89  91
ATOM     91  OG1 THR A   5       1.678   3.062  40.813  0.00  0.00    -0.382 OA
ATOM     92  HG1 THR A   5       1.720   3.818  40.176  0.00  0.00    +0.210 HD
ENDBRANCH  89  91
ENDBRANCH  51  89
ENDBRANCH  47  51
ENDBRANCH   1  49
BRANCH   1  93
ATOM     93  CB  HIS A   6      -2.214   1.696  42.697  0.00  0.00    +0.076 C 
BRANCH  93  94
ATOM     94  CG  HIS A   6      -2.027   2.308  41.351  0.00  0.00    +0.082 A 
ATOM     95  ND1 HIS A   6      -1.921   3.672  41.167  0.00  0.00    -0.227 NA
ATOM     96  CE1 HIS A   6      -1.740   3.926  39.882  0.00  0.00    +0.199 A 
ATOM     97  NE2 HIS A   6      -1.705   2.778  39.231  0.00  0.00    -0.221 NA
ATOM     98  CD2 HIS A   6      -1.877   1.747  40.126  0.00  0.00    +0.115 A 
ENDBRANCH  93  94
ENDBRANCH   1  93
TORSDOF 39
REMARK  Name = ../refined-set-2016/2y7i/2y7i_pocket.pdb
REMARK  211 active torsions:
REMARK  status: ('A' for Active; 'I' for Inactive)
REMARK    1  A    between atoms: _1  and  _3
REMARK    2  A    between atoms: _3  and  _4
REMARK    3  A    between atoms: _3  and  _6
REMARK    4  A    between atoms: _6  and  _7
REMARK    5  A    between atoms: _10  and  _12
REMARK    6  A    between atoms: _12  and  _13
REMARK    7  A    between atoms: _12  and  _15
REMARK    8  A    between atoms: _15  and  _16
REMARK    9  A    between atoms: _18  and  _20
REMARK   10  A    between atoms: _20  and  _21
REMARK   11  A    between atoms: _24  and  _26
REMARK   12  A    between atoms: _26  and  _27
REMARK   13  A    between atoms: _26  and  _29
REMARK   14  A    between atoms: _29  and  _30
REMARK   15  A    between atoms: _33  and  _35
REMARK   16  A    between atoms: _35  and  _36
REMARK   17  A    between atoms: _35  and  _38
REMARK   18  A    between atoms: _38  and  _39
REMARK   19  A    between atoms: _44  and  _45
REMARK   20  A    between atoms: _47  and  _49
REMARK   21  A    between atoms: _49  and  _50
REMARK   22  A    between atoms: _53  and  _55
REMARK   23  A    between atoms: _55  and  _56
REMARK   24  A    between atoms: _55  and  _58
REMARK   25  A    between atoms: _58  and  _59
REMARK   26  A    between atoms: _64  and  _65
REMARK   27  A    between atoms: _67  and  _69
REMARK   28  A    between atoms: _69  and  _70
REMARK   29  A    between atoms: _69  and  _72
REMARK   30  A    between atoms: _72  and  _73
REMARK   31  A    between atoms: _73  and  _74
REMARK   32  A    between atoms: _77  and  _79
REMARK   33  A    between atoms: _79  and  _80
REMARK   34  A    between atoms: _79  and  _82
REMARK   35  A    between atoms: _82  and  _83
REMARK   36  A    between atoms: _89  and  _91
REMARK   37  A    between atoms: _91  and  _92
REMARK   38  A    between atoms: _91  and  _94
REMARK   39  A    between atoms: _94  and  _95
REMARK   40  A    between atoms: _98  and  _100
REMARK   41  A    between atoms: _100  and  _101
REMARK   42  A    between atoms: _100  and  _103
REMARK   43  A    between atoms: _103  and  _104
REMARK   44  A    between atoms: _109  and  _111
REMARK   45  A    between atoms: _111  and  _112
REMARK   46  A    between atoms: _111  and  _114
REMARK   47  A    between atoms: _114  and  _115
REMARK   48  A    between atoms: _115  and  _116
REMARK   49  A    between atoms: _121  and  _123
REMARK   50  A    between atoms: _123  and  _124
REMARK   51  A    between atoms: _123  and  _126
REMARK   52  A    between atoms: _126  and  _127
REMARK   53  A    between atoms: _129  and  _131
REMARK   54  A    between atoms: _131  and  _132
REMARK   55  A    between atoms: _131  and  _134
REMARK   56  A    between atoms: _134  and  _135
REMARK   57  A    between atoms: _141  and  _143
REMARK   58  A    between atoms: _143  and  _144
REMARK   59  A    between atoms: _143  and  _146
REMARK   60  A    between atoms: _146  and  _147
REMARK   61  A    between atoms: _150  and  _152
REMARK   62  A    between atoms: _152  and  _153
REMARK   63  A    between atoms: _152  and  _155
REMARK   64  A    between atoms: _155  and  _156
REMARK   65  A    between atoms: _159  and  _161
REMARK   66  A    between atoms: _161  and  _162
REMARK   67  A    between atoms: _161  and  _164
REMARK   68  A    between atoms: _164  and  _165
REMARK   69  A    between atoms: _168  and  _170
REMARK   70  A    between atoms: _170  and  _171
REMARK   71  A    between atoms: _174  and  _176
REMARK   72  A    between atoms: _176  and  _177
REMARK   73  A    between atoms: _179  and  _181
REMARK   74  A    between atoms: _181  and  _182
REMARK   75  A    between atoms: _181  and  _184
REMARK   76  A    between atoms: _184  and  _185
REMARK   77  A    between atoms: _185  and  _186
REMARK   78  A    between atoms: _188  and  _190
REMARK   79  A    between atoms: _190  and  _191
REMARK   80  A    between atoms: _190  and  _193
REMARK   81  A    between atoms: _193  and  _194
REMARK   82  A    between atoms: _197  and  _199
REMARK   83  A    between atoms: _199  and  _200
REMARK   84  A    between atoms: _199  and  _202
REMARK   85  A    between atoms: _202  and  _203
REMARK   86  A    between atoms: _203  and  _204
REMARK   87  A    between atoms: _206  and  _208
REMARK   88  A    between atoms: _208  and  _209
REMARK   89  A    between atoms: _208  and  _211
REMARK   90  A    between atoms: _211  and  _212
REMARK   91  A    between atoms: _215  and  _217
REMARK   92  A    between atoms: _217  and  _218
REMARK   93  A    between atoms: _217  and  _220
REMARK   94  A    between atoms: _220  and  _221
REMARK   95  A    between atoms: _221  and  _222
REMARK   96  A    between atoms: _222  and  _223
REMARK   97  A    between atoms: _232  and  _234
REMARK   98  A    between atoms: _234  and  _235
REMARK   99  A    between atoms: _234  and  _237
REMARK  100  A    between atoms: _237  and  _238
REMARK  101  A    between atoms: _244  and  _246
REMARK  102  A    between atoms: _246  and  _247
REMARK  103  A    between atoms: _246  and  _249
REMARK  104  A    between atoms: _249  and  _250
REMARK  105  A    between atoms: _250  and  _251
REMARK  106  A    between atoms: _254  and  _256
REMARK  107  A    between atoms: _256  and  _257
REMARK  108  A    between atoms: _259  and  _261
REMARK  109  A    between atoms: _261  and  _262
REMARK  110  A    between atoms: _261  and  _264
REMARK  111  A    between atoms: _264  and  _265
REMARK  112  A    between atoms: _268  and  _270
REMARK  113  A    between atoms: _270  and  _271
REMARK  114  A    between atoms: _274  and  _276
REMARK  115  A    between atoms: _276  and  _277
REMARK  116  A    between atoms: _276  and  _279
REMARK  117  A    between atoms: _279  and  _280
REMARK  118  A    between atoms: _280  and  _281
REMARK  119  A    between atoms: _284  and  _286
REMARK  120  A    between atoms: _286  and  _287
REMARK  121  A    between atoms: _286  and  _289
REMARK  122  A    between atoms: _289  and  _290
REMARK  123  A    between atoms: _295  and  _297
REMARK  124  A    between atoms: _297  and  _298
REMARK  125  A    between atoms: _300  and  _302
REMARK  126  A    between atoms: _302  and  _303
REMARK  127  A    between atoms: _302  and  _305
REMARK  128  A    between atoms: _305  and  _306
REMARK  129  A    between atoms: _309  and  _311
REMARK  130  A    between atoms: _311  and  _312
REMARK  131  A    between atoms: _311  and  _314
REMARK  132  A    between atoms: _314  and  _315
REMARK  133  A    between atoms: _318  and  _320
REMARK  134  A    between atoms: _320  and  _321
REMARK  135  A    between atoms: _320  and  _323
REMARK  136  A    between atoms: _323  and  _324
REMARK  137  A    between atoms: _329  and  _331
REMARK  138  A    between atoms: _331  and  _332
REMARK  139  A    between atoms: _331  and  _334
REMARK  140  A    between atoms: _334  and  _335
REMARK  141  A    between atoms: _335  and  _336
REMARK  142  A    between atoms: _341  and  _343
REMARK  143  A    between atoms: _343  and  _344
REMARK  144  A    between atoms: _343  and  _346
REMARK  145  A    between atoms: _346  and  _347
REMARK  146  A    between atoms: _347  and  _348
REMARK  147  A    between atoms: _348  and  _349
REMARK  148  A    between atoms: _358  and  _360
REMARK  149  A    between atoms: _360  and  _361
REMARK  150  A    between atoms: _360  and  _363
REMARK  151  A    between atoms: _363  and  _364
REMARK  152  A    between atoms: _369  and  _370
REMARK  153  A    between atoms: _372  and  _374
REMARK  154  A    between atoms: _374  and  _375
REMARK  155  A    between atoms: _374  and  _377
REMARK  156  A    between atoms: _377  and  _378
REMARK  157  A    between atoms: _381  and  _383
REMARK  158  A    between atoms: _383  and  _384
REMARK  159  A    between atoms: _383  and  _386
REMARK  160  A    between atoms: _386  and  _387
REMARK  161  A    between atoms: _389  and  _391
REMARK  162  A    between atoms: _391  and  _392
REMARK  163  A    between atoms: _391  and  _394
REMARK  164  A    between atoms: _394  and  _395
REMARK  165  A    between atoms: _400  and  _401
REMARK  166  A    between atoms: _403  and  _405
REMARK  167  A    between atoms: _405  and  _406
REMARK  168  A    between atoms: _405  and  _408
REMARK  169  A    between atoms: _408  and  _409
REMARK  170  A    between atoms: _412  and  _414
REMARK  171  A    between atoms: _414  and  _415
REMARK  172  A    between atoms: _414  and  _417
REMARK  173  A    between atoms: _417  and  _418
REMARK  174  A    between atoms: _424  and  _426
REMARK  175  A    between atoms: _426  and  _427
REMARK  176  A    between atoms: _429  and  _431
REMARK  177  A    between atoms: _431  and  _432
REMARK  178  A    between atoms: _431  and  _434
REMARK  179  A    between atoms: _434  and  _435
REMARK  180  A    between atoms: _438  and  _440
REMARK  181  A    between atoms: _440  and  _441
REMARK  182  A    between atoms: _440  and  _443
REMARK  183  A    between atoms: _446  and  _448
REMARK  184  A    between atoms: _448  and  _449
REMARK  185  A    between atoms: _452  and  _454
REMARK  186  A    between atoms: _454  and  _455
REMARK  187  A    between atoms: _454  and  _457
REMARK  188  A    between atoms: _457  and  _458
REMARK  189  A    between atoms: _463  and  _464
REMARK  190  A    between atoms: _466  and  _468
REMARK  191  A    between atoms: _468  and  _469
REMARK  192  A    between atoms: _468  and  _471
REMARK  193  A    between atoms: _471  and  _472
REMARK  194  A    between atoms: _477  and  _478
REMARK  195  A    between atoms: _480  and  _482
REMARK  196  A    between atoms: _482  and  _483
REMARK  197  A    between atoms: _485  and  _487
REMARK  198  A    between atoms: _487  and  _488
REMARK  199  A    between atoms: _487  and  _490
REMARK  200  A    between atoms: _490  and  _491
REMARK  201  A    between atoms: _491  and  _492
REMARK  202  A    between atoms: _492  and  _493
REMARK  203  A    between atoms: _493  and  _494
REMARK  204  A    between atoms: _498  and  _500
REMARK  205  A    between atoms: _500  and  _501
REMARK  206  A    between atoms: _503  and  _505
REMARK  207  A    between atoms: _505  and  _506
REMARK  208  A    between atoms: _505  and  _508
REMARK  209  A    between atoms: _508  and  _509
REMARK  210  A    between atoms: _512  and  _514
REMARK  211  A    between atoms: _514  and  _515
REMARK                            x       y       z     vdW  Elec       q    Type
REMARK                         _______ _______ _______ _____ _____    ______ ____
ROOT
ATOM      1  CA  TYR A   3      -7.426  -5.161  36.942  0.00  0.00    +0.153 C 
ENDROOT
BRANCH   1   4
ATOM      2  C   SER A   2      -6.540  -7.402  37.323  0.00  0.00    +0.243 C 
ATOM      3  O   SER A   2      -7.510  -7.747  38.003  0.00  0.00    -0.273 OA
ATOM      4  N   TYR A   3      -6.375  -6.172  36.829  0.00  0.00    -0.297 N 
ATOM      5  H   TYR A   3      -5.482  -5.928  36.355  0.00  0.00    +0.150 HD
BRANCH   2   6
ATOM      6  CA  SER A   2      -5.448  -8.402  37.006  0.00  0.00    +0.178 C 
BRANCH   6   8
ATOM      7  C   ASP A   1      -3.699  -9.569  38.216  0.00  0.00    +0.239 C 
ATOM      8  N   SER A   2      -4.867  -8.938  38.236  0.00  0.00    -0.295 N 
ATOM      9  H   SER A   2      -5.374  -8.824  39.137  0.00  0.00    +0.150 HD
ATOM     10  O   ASP A   1      -3.094  -9.804  37.162  0.00  0.00    -0.274 OA
BRANCH   7  11
ATOM     11  CA  ASP A   1      -3.136 -10.020  39.569  0.00  0.00    +0.156 C 
BRANCH  11  12
ATOM     12  N   ASP A   1      -4.110  -9.982  40.666  0.00  0.00    -0.238 NA
ATOM     13  H   ASP A   1      -4.669 -10.828  40.898  0.00  0.00    +0.142 HD
ENDBRANCH  11  12
BRANCH  11  14
ATOM     14  CB  ASP A   1      -2.445 -11.389  39.473  0.00  0.00    +0.140 C 
BRANCH  14  15
ATOM     15  CG  ASP A   1      -1.284 -11.503  40.434  0.00  0.00    +0.367 C 
ATOM     16  OD2 ASP A   1      -1.205 -10.656  41.348  0.00  0.00    -0.246 OA
ATOM     17  OD1 ASP A   1      -0.447 -12.414  40.299  0.00  0.00    -0.246 OA
ENDBRANCH  14  15
ENDBRANCH  11  14
ENDBRANCH   7  11
ENDBRANCH   6   8
BRANCH   6  18
ATOM     18  CB  SER A   2      -6.028  -9.538  36.157  0.00  0.00    +0.166 C 
BRANCH  18  19
ATOM     19  OG  SER A   2      -6.728  -9.020  35.039  0.00  0.00    -0.380 OA
ATOM     20  H   SER A   2      -7.094  -9.769  34.505  0.00  0.00    +0.211 HD
ENDBRANCH  18  19
ENDBRANCH   6  18
ENDBRANCH   2   6
ENDBRANCH   1   4
BRANCH   1  21
ATOM     21  C   TYR A   3      -8.774  -5.678  36.425  0.00  0.00    +0.241 C 
ATOM     22  O   TYR A   3      -9.818  -5.285  36.936  0.00  0.00    -0.273 OA
ATOM     23  N   LEU A   4      -8.762  -6.615  35.476  0.00  0.00    -0.298 N 
ATOM     24  H   LEU A   4      -7.854  -6.945  35.091  0.00  0.00    +0.150 HD
BRANCH  23  25
ATOM     25  CA  LEU A   4     -10.019  -7.187  34.968  0.00  0.00    +0.137 C 
BRANCH  25  26
ATOM     26  C   LEU A   4     -10.843  -7.904  36.057  0.00  0.00    +0.227 C 
ATOM     27  O   LEU A   4     -12.069  -7.758  36.134  0.00  0.00    -0.286 OA
ENDBRANCH  25  26
BRANCH  25  28
ATOM     28  CB  LEU A   4      -9.782  -8.134  33.774  0.00  0.00    +0.028 C 
BRANCH  28  29
ATOM     29  CG  LEU A   4      -8.858  -7.772  32.599  0.00  0.00    +0.002 C 
ATOM     30  CD2 LEU A   4      -8.959  -6.309  32.161  0.00  0.00    +0.000 C 
ATOM     31  CD1 LEU A   4      -9.104  -8.712  31.403  0.00  0.00    +0.000 C 
ENDBRANCH  28  29
ENDBRANCH  25  28
ENDBRANCH  23  25
ENDBRANCH   1  21
BRANCH   1  32
ATOM     32  CB  TYR A   3      -6.989  -3.801  36.334  0.00  0.00    +0.055 C 
BRANCH  32  33
ATOM     33  CG  TYR A   3      -6.201  -2.967  37.328  0.00  0.00    -0.020 A 
ATOM     34  CD2 TYR A   3      -6.842  -2.328  38.384  0.00  0.00    -0.001 A 
ATOM     35  CE2 TYR A   3      -6.127  -1.574  39.327  0.00  0.00    +0.036 A 
ATOM     36  CZ  TYR A   3      -4.750  -1.448  39.215  0.00  0.00    +0.134 A 
ATOM     37  CE1 TYR A   3      -4.081  -2.074  38.162  0.00  0.00    +0.036 A 
ATOM     38  CD1 TYR A   3      -4.810  -2.838  37.231  0.00  0.00    -0.001 A 
BRANCH  36  39
ATOM     39  OH  TYR A   3      -4.046  -0.723  40.175  0.00  0.00    -0.506 OA
ATOM     40  HH  TYR A   3      -4.681  -0.353  40.839  0.00  0.00    +0.292 HD
ENDBRANCH  36  39
ENDBRANCH  32  33
ENDBRANCH   1  32
TORSDOF 17
REMARK  Name = ../refined-set-2016/2y7i/2y7i_pocket.pdb
REMARK  211 active torsions:
REMARK  status: ('A' for Active; 'I' for Inactive)
REMARK    1  A    between atoms: _1  and  _3
REMARK    2  A    between atoms: _3  and  _4
REMARK    3  A    between atoms: _3  and  _6
REMARK    4  A    between atoms: _6  and  _7
REMARK    5  A    between atoms: _10  and  _12
REMARK    6  A    between atoms: _12  and  _13
REMARK    7  A    between atoms: _12  and  _15
REMARK    8  A    between atoms: _15  and  _16
REMARK    9  A    between atoms: _18  and  _20
REMARK   10  A    between atoms: _20  and  _21
REMARK   11  A    between atoms: _24  and  _26
REMARK   12  A    between atoms: _26  and  _27
REMARK   13  A    between atoms: _26  and  _29
REMARK   14  A    between atoms: _29  and  _30
REMARK   15  A    between atoms: _33  and  _35
REMARK   16  A    between atoms: _35  and  _36
REMARK   17  A    between atoms: _35  and  _38
REMARK   18  A    between atoms: _38  and  _39
REMARK   19  A    between atoms: _44  and  _45
REMARK   20  A    between atoms: _47  and  _49
REMARK   21  A    between atoms: _49  and  _50
REMARK   22  A    between atoms: _53  and  _55
REMARK   23  A    between atoms: _55  and  _56
REMARK   24  A    between atoms: _55  and  _58
REMARK   25  A    between atoms: _58  and  _59
REMARK   26  A    between atoms: _64  and  _65
REMARK   27  A    between atoms: _67  and  _69
REMARK   28  A    between atoms: _69  and  _70
REMARK   29  A    between atoms: _69  and  _72
REMARK   30  A    between atoms: _72  and  _73
REMARK   31  A    between atoms: _73  and  _74
REMARK   32  A    between atoms: _77  and  _79
REMARK   33  A    between atoms: _79  and  _80
REMARK   34  A    between atoms: _79  and  _82
REMARK   35  A    between atoms: _82  and  _83
REMARK   36  A    between atoms: _89  and  _91
REMARK   37  A    between atoms: _91  and  _92
REMARK   38  A    between atoms: _91  and  _94
REMARK   39  A    between atoms: _94  and  _95
REMARK   40  A    between atoms: _98  and  _100
REMARK   41  A    between atoms: _100  and  _101
REMARK   42  A    between atoms: _100  and  _103
REMARK   43  A    between atoms: _103  and  _104
REMARK   44  A    between atoms: _109  and  _111
REMARK   45  A    between atoms: _111  and  _112
REMARK   46  A    between atoms: _111  and  _114
REMARK   47  A    between atoms: _114  and  _115
REMARK   48  A    between atoms: _115  and  _116
REMARK   49  A    between atoms: _121  and  _123
REMARK   50  A    between atoms: _123  and  _124
REMARK   51  A    between atoms: _123  and  _126
REMARK   52  A    between atoms: _126  and  _127
REMARK   53  A    between atoms: _129  and  _131
REMARK   54  A    between atoms: _131  and  _132
REMARK   55  A    between atoms: _131  and  _134
REMARK   56  A    between atoms: _134  and  _135
REMARK   57  A    between atoms: _141  and  _143
REMARK   58  A    between atoms: _143  and  _144
REMARK   59  A    between atoms: _143  and  _146
REMARK   60  A    between atoms: _146  and  _147
REMARK   61  A    between atoms: _150  and  _152
REMARK   62  A    between atoms: _152  and  _153
REMARK   63  A    between atoms: _152  and  _155
REMARK   64  A    between atoms: _155  and  _156
REMARK   65  A    between atoms: _159  and  _161
REMARK   66  A    between atoms: _161  and  _162
REMARK   67  A    between atoms: _161  and  _164
REMARK   68  A    between atoms: _164  and  _165
REMARK   69  A    between atoms: _168  and  _170
REMARK   70  A    between atoms: _170  and  _171
REMARK   71  A    between atoms: _174  and  _176
REMARK   72  A    between atoms: _176  and  _177
REMARK   73  A    between atoms: _179  and  _181
REMARK   74  A    between atoms: _181  and  _182
REMARK   75  A    between atoms: _181  and  _184
REMARK   76  A    between atoms: _184  and  _185
REMARK   77  A    between atoms: _185  and  _186
REMARK   78  A    between atoms: _188  and  _190
REMARK   79  A    between atoms: _190  and  _191
REMARK   80  A    between atoms: _190  and  _193
REMARK   81  A    between atoms: _193  and  _194
REMARK   82  A    between atoms: _197  and  _199
REMARK   83  A    between atoms: _199  and  _200
REMARK   84  A    between atoms: _199  and  _202
REMARK   85  A    between atoms: _202  and  _203
REMARK   86  A    between atoms: _203  and  _204
REMARK   87  A    between atoms: _206  and  _208
REMARK   88  A    between atoms: _208  and  _209
REMARK   89  A    between atoms: _208  and  _211
REMARK   90  A    between atoms: _211  and  _212
REMARK   91  A    between atoms: _215  and  _217
REMARK   92  A    between atoms: _217  and  _218
REMARK   93  A    between atoms: _217  and  _220
REMARK   94  A    between atoms: _220  and  _221
REMARK   95  A    between atoms: _221  and  _222
REMARK   96  A    between atoms: _222  and  _223
REMARK   97  A    between atoms: _232  and  _234
REMARK   98  A    between atoms: _234  and  _235
REMARK   99  A    between atoms: _234  and  _237
REMARK  100  A    between atoms: _237  and  _238
REMARK  101  A    between atoms: _244  and  _246
REMARK  102  A    between atoms: _246  and  _247
REMARK  103  A    between atoms: _246  and  _249
REMARK  104  A    between atoms: _249  and  _250
REMARK  105  A    between atoms: _250  and  _251
REMARK  106  A    between atoms: _254  and  _256
REMARK  107  A    between atoms: _256  and  _257
REMARK  108  A    between atoms: _259  and  _261
REMARK  109  A    between atoms: _261  and  _262
REMARK  110  A    between atoms: _261  and  _264
REMARK  111  A    between atoms: _264  and  _265
REMARK  112  A    between atoms: _268  and  _270
REMARK  113  A    between atoms: _270  and  _271
REMARK  114  A    between atoms: _274  and  _276
REMARK  115  A    between atoms: _276  and  _277
REMARK  116  A    between atoms: _276  and  _279
REMARK  117  A    between atoms: _279  and  _280
REMARK  118  A    between atoms: _280  and  _281
REMARK  119  A    between atoms: _284  and  _286
REMARK  120  A    between atoms: _286  and  _287
REMARK  121  A    between atoms: _286  and  _289
REMARK  122  A    between atoms: _289  and  _290
REMARK  123  A    between atoms: _295  and  _297
REMARK  124  A    between atoms: _297  and  _298
REMARK  125  A    between atoms: _300  and  _302
REMARK  126  A    between atoms: _302  and  _303
REMARK  127  A    between atoms: _302  and  _305
REMARK  128  A    between atoms: _305  and  _306
REMARK  129  A    between atoms: _309  and  _311
REMARK  130  A    between atoms: _311  and  _312
REMARK  131  A    between atoms: _311  and  _314
REMARK  132  A    between atoms: _314  and  _315
REMARK  133  A    between atoms: _318  and  _320
REMARK  134  A    between atoms: _320  and  _321
REMARK  135  A    between atoms: _320  and  _323
REMARK  136  A    between atoms: _323  and  _324
REMARK  137  A    between atoms: _329  and  _331
REMARK  138  A    between atoms: _331  and  _332
REMARK  139  A    between atoms: _331  and  _334
REMARK  140  A    between atoms: _334  and  _335
REMARK  141  A    between atoms: _335  and  _336
REMARK  142  A    between atoms: _341  and  _343
REMARK  143  A    between atoms: _343  and  _344
REMARK  144  A    between atoms: _343  and  _346
REMARK  145  A    between atoms: _346  and  _347
REMARK  146  A    between atoms: _347  and  _348
REMARK  147  A    between atoms: _348  and  _349
REMARK  148  A    between atoms: _358  and  _360
REMARK  149  A    between atoms: _360  and  _361
REMARK  150  A    between atoms: _360  and  _363
REMARK  151  A    between atoms: _363  and  _364
REMARK  152  A    between atoms: _369  and  _370
REMARK  153  A    between atoms: _372  and  _374
REMARK  154  A    between atoms: _374  and  _375
REMARK  155  A    between atoms: _374  and  _377
REMARK  156  A    between atoms: _377  and  _378
REMARK  157  A    between atoms: _381  and  _383
REMARK  158  A    between atoms: _383  and  _384
REMARK  159  A    between atoms: _383  and  _386
REMARK  160  A    between atoms: _386  and  _387
REMARK  161  A    between atoms: _389  and  _391
REMARK  162  A    between atoms: _391  and  _392
REMARK  163  A    between atoms: _391  and  _394
REMARK  164  A    between atoms: _394  and  _395
REMARK  165  A    between atoms: _400  and  _401
REMARK  166  A    between atoms: _403  and  _405
REMARK  167  A    between atoms: _405  and  _406
REMARK  168  A    between atoms: _405  and  _408
REMARK  169  A    between atoms: _408  and  _409
REMARK  170  A    between atoms: _412  and  _414
REMARK  171  A    between atoms: _414  and  _415
REMARK  172  A    between atoms: _414  and  _417
REMARK  173  A    between atoms: _417  and  _418
REMARK  174  A    between atoms: _424  and  _426
REMARK  175  A    between atoms: _426  and  _427
REMARK  176  A    between atoms: _429  and  _431
REMARK  177  A    between atoms: _431  and  _432
REMARK  178  A    between atoms: _431  and  _434
REMARK  179  A    between atoms: _434  and  _435
REMARK  180  A    between atoms: _438  and  _440
REMARK  181  A    between atoms: _440  and  _441
REMARK  182  A    between atoms: _440  and  _443
REMARK  183  A    between atoms: _446  and  _448
REMARK  184  A    between atoms: _448  and  _449
REMARK  185  A    between atoms: _452  and  _454
REMARK  186  A    between atoms: _454  and  _455
REMARK  187  A    between atoms: _454  and  _457
REMARK  188  A    between atoms: _457  and  _458
REMARK  189  A    between atoms: _463  and  _464
REMARK  190  A    between atoms: _466  and  _468
REMARK  191  A    between atoms: _468  and  _469
REMARK  192  A    between atoms: _468  and  _471
REMARK  193  A    between atoms: _471  and  _472
REMARK  194  A    between atoms: _477  and  _478
REMARK  195  A    between atoms: _480  and  _482
REMARK  196  A    between atoms: _482  and  _483
REMARK  197  A    between atoms: _485  and  _487
REMARK  198  A    between atoms: _487  and  _488
REMARK  199  A    between atoms: _487  and  _490
REMARK  200  A    between atoms: _490  and  _491
REMARK  201  A    between atoms: _491  and  _492
REMARK  202  A    between atoms: _492  and  _493
REMARK  203  A    between atoms: _493  and  _494
REMARK  204  A    between atoms: _498  and  _500
REMARK  205  A    between atoms: _500  and  _501
REMARK  206  A    between atoms: _503  and  _505
REMARK  207  A    between atoms: _505  and  _506
REMARK  208  A    between atoms: _505  and  _508
REMARK  209  A    between atoms: _508  and  _509
REMARK  210  A    between atoms: _512  and  _514
REMARK  211  A    between atoms: _514  and  _515
REMARK                            x       y       z     vdW  Elec       q    Type
REMARK                         _______ _______ _______ _____ _____    ______ ____
ROOT
ATOM      1  C   GLY A   2      -5.047   3.969  38.484  0.00  0.00    +0.243 C 
ATOM      2  O   GLY A   2      -5.424   5.075  38.909  0.00  0.00    -0.273 OA
ATOM      3  N   ASP A   3      -4.357   3.823  37.345  0.00  0.00    -0.296 N 
ATOM      4  H   ASP A   3      -4.077   2.871  37.035  0.00  0.00    +0.150 HD
ENDROOT
BRANCH   1   5
ATOM      5  CA  GLY A   2      -5.365   2.701  39.260  0.00  0.00    +0.176 C 
BRANCH   5   8
ATOM      6  C   PHE A   1      -6.540   1.956  41.289  0.00  0.00    +0.239 C 
ATOM      7  O   PHE A   1      -5.919   0.892  41.342  0.00  0.00    -0.274 OA
ATOM      8  N   GLY A   2      -6.343   2.878  40.341  0.00  0.00    -0.296 N 
ATOM      9  H   GLY A   2      -6.904   3.754  40.370  0.00  0.00    +0.150 HD
BRANCH   6  10
ATOM     10  CA  PHE A   1      -7.638   2.249  42.311  0.00  0.00    +0.149 C 
BRANCH  10  11
ATOM     11  N   PHE A   1      -8.614   1.151  42.267  0.00  0.00    -0.238 NA
ATOM     12  H   PHE A   1      -8.291   0.197  42.528  0.00  0.00    +0.142 HD
ENDBRANCH  10  11
BRANCH  10  13
ATOM     13  CB  PHE A   1      -7.084   2.318  43.744  0.00  0.00    +0.053 C 
BRANCH  13  14
ATOM     14  CG  PHE A   1      -6.078   3.407  43.998  0.00  0.00    -0.020 A 
ATOM     15  CD2 PHE A   1      -4.879   3.095  44.636  0.00  0.00    -0.004 A 
ATOM     16  CE2 PHE A   1      -3.932   4.093  44.932  0.00  0.00    -0.000 A 
ATOM     17  CZ  PHE A   1      -4.199   5.422  44.593  0.00  0.00    -0.000 A 
ATOM     18  CE1 PHE A   1      -5.411   5.752  43.970  0.00  0.00    -0.000 A 
ATOM     19  CD1 PHE A   1      -6.349   4.740  43.691  0.00  0.00    -0.004 A 
ENDBRANCH  13  14
ENDBRANCH  10  13
ENDBRANCH   6  10
ENDBRANCH   5   8
ENDBRANCH   1   5
BRANCH   3  20
ATOM     20  CA  ASP A   3      -3.988   4.990  36.525  0.00  0.00    +0.160 C 
BRANCH  20  21
ATOM     21  C   ASP A   3      -5.219   5.603  35.876  0.00  0.00    +0.241 C 
ATOM     22  N   VAL A   4      -5.245   6.933  35.811  0.00  0.00    -0.298 N 
ATOM     23  H   VAL A   4      -4.424   7.476  36.148  0.00  0.00    +0.150 HD
ATOM     24  O   ASP A   3      -6.126   4.889  35.450  0.00  0.00    -0.273 OA
BRANCH  22  25
ATOM     25  CA  VAL A   4      -6.404   7.646  35.275  0.00  0.00    +0.137 C 
BRANCH  25  26
ATOM     26  CB  VAL A   4      -6.304   9.210  35.435  0.00  0.00    +0.026 C 
ATOM     27  CG2 VAL A   4      -7.618   9.877  35.055  0.00  0.00    +0.002 C 
ATOM     28  CG1 VAL A   4      -5.116   9.794  34.665  0.00  0.00    +0.002 C 
ENDBRANCH  25  26
BRANCH  25  29
ATOM     29  C   VAL A   4      -6.787   7.208  33.862  0.00  0.00    +0.227 C 
ATOM     30  O   VAL A   4      -7.973   7.065  33.575  0.00  0.00    -0.286 OA
ENDBRANCH  25  29
ENDBRANCH  22  25
ENDBRANCH  20  21
BRANCH  20  31
ATOM     31  CB  ASP A   3      -2.920   4.643  35.463  0.00  0.00    +0.143 C 
BRANCH  31  32
ATOM     32  CG  ASP A   3      -1.528   4.462  36.072  0.00  0.00    +0.367 C 
ATOM     33  OD2 ASP A   3      -0.854   5.468  36.353  0.00  0.00    -0.246 OA
ATOM     34  OD1 ASP A   3      -1.101   3.317  36.281  0.00  0.00    -0.246 OA
ENDBRANCH  31  32
ENDBRANCH  20  31
ENDBRANCH   3  20
TORSDOF 13
REMARK  Name = ../refined-set-2016/2y7i/2y7i_pocket.pdb
REMARK  211 active torsions:
REMARK  status: ('A' for Active; 'I' for Inactive)
REMARK    1  A    between atoms: _1  and  _3
REMARK    2  A    between atoms: _3  and  _4
REMARK    3  A    between atoms: _3  and  _6
REMARK    4  A    between atoms: _6  and  _7
REMARK    5  A    between atoms: _10  and  _12
REMARK    6  A    between atoms: _12  and  _13
REMARK    7  A    between atoms: _12  and  _15
REMARK    8  A    between atoms: _15  and  _16
REMARK    9  A    between atoms: _18  and  _20
REMARK   10  A    between atoms: _20  and  _21
REMARK   11  A    between atoms: _24  and  _26
REMARK   12  A    between atoms: _26  and  _27
REMARK   13  A    between atoms: _26  and  _29
REMARK   14  A    between atoms: _29  and  _30
REMARK   15  A    between atoms: _33  and  _35
REMARK   16  A    between atoms: _35  and  _36
REMARK   17  A    between atoms: _35  and  _38
REMARK   18  A    between atoms: _38  and  _39
REMARK   19  A    between atoms: _44  and  _45
REMARK   20  A    between atoms: _47  and  _49
REMARK   21  A    between atoms: _49  and  _50
REMARK   22  A    between atoms: _53  and  _55
REMARK   23  A    between atoms: _55  and  _56
REMARK   24  A    between atoms: _55  and  _58
REMARK   25  A    between atoms: _58  and  _59
REMARK   26  A    between atoms: _64  and  _65
REMARK   27  A    between atoms: _67  and  _69
REMARK   28  A    between atoms: _69  and  _70
REMARK   29  A    between atoms: _69  and  _72
REMARK   30  A    between atoms: _72  and  _73
REMARK   31  A    between atoms: _73  and  _74
REMARK   32  A    between atoms: _77  and  _79
REMARK   33  A    between atoms: _79  and  _80
REMARK   34  A    between atoms: _79  and  _82
REMARK   35  A    between atoms: _82  and  _83
REMARK   36  A    between atoms: _89  and  _91
REMARK   37  A    between atoms: _91  and  _92
REMARK   38  A    between atoms: _91  and  _94
REMARK   39  A    between atoms: _94  and  _95
REMARK   40  A    between atoms: _98  and  _100
REMARK   41  A    between atoms: _100  and  _101
REMARK   42  A    between atoms: _100  and  _103
REMARK   43  A    between atoms: _103  and  _104
REMARK   44  A    between atoms: _109  and  _111
REMARK   45  A    between atoms: _111  and  _112
REMARK   46  A    between atoms: _111  and  _114
REMARK   47  A    between atoms: _114  and  _115
REMARK   48  A    between atoms: _115  and  _116
REMARK   49  A    between atoms: _121  and  _123
REMARK   50  A    between atoms: _123  and  _124
REMARK   51  A    between atoms: _123  and  _126
REMARK   52  A    between atoms: _126  and  _127
REMARK   53  A    between atoms: _129  and  _131
REMARK   54  A    between atoms: _131  and  _132
REMARK   55  A    between atoms: _131  and  _134
REMARK   56  A    between atoms: _134  and  _135
REMARK   57  A    between atoms: _141  and  _143
REMARK   58  A    between atoms: _143  and  _144
REMARK   59  A    between atoms: _143  and  _146
REMARK   60  A    between atoms: _146  and  _147
REMARK   61  A    between atoms: _150  and  _152
REMARK   62  A    between atoms: _152  and  _153
REMARK   63  A    between atoms: _152  and  _155
REMARK   64  A    between atoms: _155  and  _156
REMARK   65  A    between atoms: _159  and  _161
REMARK   66  A    between atoms: _161  and  _162
REMARK   67  A    between atoms: _161  and  _164
REMARK   68  A    between atoms: _164  and  _165
REMARK   69  A    between atoms: _168  and  _170
REMARK   70  A    between atoms: _170  and  _171
REMARK   71  A    between atoms: _174  and  _176
REMARK   72  A    between atoms: _176  and  _177
REMARK   73  A    between atoms: _179  and  _181
REMARK   74  A    between atoms: _181  and  _182
REMARK   75  A    between atoms: _181  and  _184
REMARK   76  A    between atoms: _184  and  _185
REMARK   77  A    between atoms: _185  and  _186
REMARK   78  A    between atoms: _188  and  _190
REMARK   79  A    between atoms: _190  and  _191
REMARK   80  A    between atoms: _190  and  _193
REMARK   81  A    between atoms: _193  and  _194
REMARK   82  A    between atoms: _197  and  _199
REMARK   83  A    between atoms: _199  and  _200
REMARK   84  A    between atoms: _199  and  _202
REMARK   85  A    between atoms: _202  and  _203
REMARK   86  A    between atoms: _203  and  _204
REMARK   87  A    between atoms: _206  and  _208
REMARK   88  A    between atoms: _208  and  _209
REMARK   89  A    between atoms: _208  and  _211
REMARK   90  A    between atoms: _211  and  _212
REMARK   91  A    between atoms: _215  and  _217
REMARK   92  A    between atoms: _217  and  _218
REMARK   93  A    between atoms: _217  and  _220
REMARK   94  A    between atoms: _220  and  _221
REMARK   95  A    between atoms: _221  and  _222
REMARK   96  A    between atoms: _222  and  _223
REMARK   97  A    between atoms: _232  and  _234
REMARK   98  A    between atoms: _234  and  _235
REMARK   99  A    between atoms: _234  and  _237
REMARK  100  A    between atoms: _237  and  _238
REMARK  101  A    between atoms: _244  and  _246
REMARK  102  A    between atoms: _246  and  _247
REMARK  103  A    between atoms: _246  and  _249
REMARK  104  A    between atoms: _249  and  _250
REMARK  105  A    between atoms: _250  and  _251
REMARK  106  A    between atoms: _254  and  _256
REMARK  107  A    between atoms: _256  and  _257
REMARK  108  A    between atoms: _259  and  _261
REMARK  109  A    between atoms: _261  and  _262
REMARK  110  A    between atoms: _261  and  _264
REMARK  111  A    between atoms: _264  and  _265
REMARK  112  A    between atoms: _268  and  _270
REMARK  113  A    between atoms: _270  and  _271
REMARK  114  A    between atoms: _274  and  _276
REMARK  115  A    between atoms: _276  and  _277
REMARK  116  A    between atoms: _276  and  _279
REMARK  117  A    between atoms: _279  and  _280
REMARK  118  A    between atoms: _280  and  _281
REMARK  119  A    between atoms: _284  and  _286
REMARK  120  A    between atoms: _286  and  _287
REMARK  121  A    between atoms: _286  and  _289
REMARK  122  A    between atoms: _289  and  _290
REMARK  123  A    between atoms: _295  and  _297
REMARK  124  A    between atoms: _297  and  _298
REMARK  125  A    between atoms: _300  and  _302
REMARK  126  A    between atoms: _302  and  _303
REMARK  127  A    between atoms: _302  and  _305
REMARK  128  A    between atoms: _305  and  _306
REMARK  129  A    between atoms: _309  and  _311
REMARK  130  A    between atoms: _311  and  _312
REMARK  131  A    between atoms: _311  and  _314
REMARK  132  A    between atoms: _314  and  _315
REMARK  133  A    between atoms: _318  and  _320
REMARK  134  A    between atoms: _320  and  _321
REMARK  135  A    between atoms: _320  and  _323
REMARK  136  A    between atoms: _323  and  _324
REMARK  137  A    between atoms: _329  and  _331
REMARK  138  A    between atoms: _331  and  _332
REMARK  139  A    between atoms: _331  and  _334
REMARK  140  A    between atoms: _334  and  _335
REMARK  141  A    between atoms: _335  and  _336
REMARK  142  A    between atoms: _341  and  _343
REMARK  143  A    between atoms: _343  and  _344
REMARK  144  A    between atoms: _343  and  _346
REMARK  145  A    between atoms: _346  and  _347
REMARK  146  A    between atoms: _347  and  _348
REMARK  147  A    between atoms: _348  and  _349
REMARK  148  A    between atoms: _358  and  _360
REMARK  149  A    between atoms: _360  and  _361
REMARK  150  A    between atoms: _360  and  _363
REMARK  151  A    between atoms: _363  and  _364
REMARK  152  A    between atoms: _369  and  _370
REMARK  153  A    between atoms: _372  and  _374
REMARK  154  A    between atoms: _374  and  _375
REMARK  155  A    between atoms: _374  and  _377
REMARK  156  A    between atoms: _377  and  _378
REMARK  157  A    between atoms: _381  and  _383
REMARK  158  A    between atoms: _383  and  _384
REMARK  159  A    between atoms: _383  and  _386
REMARK  160  A    between atoms: _386  and  _387
REMARK  161  A    between atoms: _389  and  _391
REMARK  162  A    between atoms: _391  and  _392
REMARK  163  A    between atoms: _391  and  _394
REMARK  164  A    between atoms: _394  and  _395
REMARK  165  A    between atoms: _400  and  _401
REMARK  166  A    between atoms: _403  and  _405
REMARK  167  A    between atoms: _405  and  _406
REMARK  168  A    between atoms: _405  and  _408
REMARK  169  A    between atoms: _408  and  _409
REMARK  170  A    between atoms: _412  and  _414
REMARK  171  A    between atoms: _414  and  _415
REMARK  172  A    between atoms: _414  and  _417
REMARK  173  A    between atoms: _417  and  _418
REMARK  174  A    between atoms: _424  and  _426
REMARK  175  A    between atoms: _426  and  _427
REMARK  176  A    between atoms: _429  and  _431
REMARK  177  A    between atoms: _431  and  _432
REMARK  178  A    between atoms: _431  and  _434
REMARK  179  A    between atoms: _434  and  _435
REMARK  180  A    between atoms: _438  and  _440
REMARK  181  A    between atoms: _440  and  _441
REMARK  182  A    between atoms: _440  and  _443
REMARK  183  A    between atoms: _446  and  _448
REMARK  184  A    between atoms: _448  and  _449
REMARK  185  A    between atoms: _452  and  _454
REMARK  186  A    between atoms: _454  and  _455
REMARK  187  A    between atoms: _454  and  _457
REMARK  188  A    between atoms: _457  and  _458
REMARK  189  A    between atoms: _463  and  _464
REMARK  190  A    between atoms: _466  and  _468
REMARK  191  A    between atoms: _468  and  _469
REMARK  192  A    between atoms: _468  and  _471
REMARK  193  A    between atoms: _471  and  _472
REMARK  194  A    between atoms: _477  and  _478
REMARK  195  A    between atoms: _480  and  _482
REMARK  196  A    between atoms: _482  and  _483
REMARK  197  A    between atoms: _485  and  _487
REMARK  198  A    between atoms: _487  and  _488
REMARK  199  A    between atoms: _487  and  _490
REMARK  200  A    between atoms: _490  and  _491
REMARK  201  A    between atoms: _491  and  _492
REMARK  202  A    between atoms: _492  and  _493
REMARK  203  A    between atoms: _493  and  _494
REMARK  204  A    between atoms: _498  and  _500
REMARK  205  A    between atoms: _500  and  _501
REMARK  206  A    between atoms: _503  and  _505
REMARK  207  A    between atoms: _505  and  _506
REMARK  208  A    between atoms: _505  and  _508
REMARK  209  A    between atoms: _508  and  _509
REMARK  210  A    between atoms: _512  and  _514
REMARK  211  A    between atoms: _514  and  _515
REMARK                            x       y       z     vdW  Elec       q    Type
REMARK                         _______ _______ _______ _____ _____    ______ ____
ROOT
ATOM      1  CA  ALA A   1      -6.864   2.899  32.462  0.00  0.00    +0.133 C 
ATOM      2  CB  ALA A   1      -5.976   1.982  33.288  0.00  0.00    +0.027 C 
ENDROOT
BRANCH   1   3
ATOM      3  N   ALA A   1      -6.311   4.250  32.431  0.00  0.00    -0.239 NA
ATOM      4  H   ALA A   1      -5.541   4.496  33.085  0.00  0.00    +0.142 HD
ENDBRANCH   1   3
BRANCH   1   5
ATOM      5  C   ALA A   1      -8.286   2.911  33.011  0.00  0.00    +0.224 C 
ATOM      6  O   ALA A   1      -9.188   2.306  32.430  0.00  0.00    -0.287 OA
ENDBRANCH   1   5
TORSDOF 2
REMARK  Name = ../refined-set-2016/2y7i/2y7i_pocket.pdb
REMARK  211 active torsions:
REMARK  status: ('A' for Active; 'I' for Inactive)
REMARK    1  A    between atoms: _1  and  _3
REMARK    2  A    between atoms: _3  and  _4
REMARK    3  A    between atoms: _3  and  _6
REMARK    4  A    between atoms: _6  and  _7
REMARK    5  A    between atoms: _10  and  _12
REMARK    6  A    between atoms: _12  and  _13
REMARK    7  A    between atoms: _12  and  _15
REMARK    8  A    between atoms: _15  and  _16
REMARK    9  A    between atoms: _18  and  _20
REMARK   10  A    between atoms: _20  and  _21
REMARK   11  A    between atoms: _24  and  _26
REMARK   12  A    between atoms: _26  and  _27
REMARK   13  A    between atoms: _26  and  _29
REMARK   14  A    between atoms: _29  and  _30
REMARK   15  A    between atoms: _33  and  _35
REMARK   16  A    between atoms: _35  and  _36
REMARK   17  A    between atoms: _35  and  _38
REMARK   18  A    between atoms: _38  and  _39
REMARK   19  A    between atoms: _44  and  _45
REMARK   20  A    between atoms: _47  and  _49
REMARK   21  A    between atoms: _49  and  _50
REMARK   22  A    between atoms: _53  and  _55
REMARK   23  A    between atoms: _55  and  _56
REMARK   24  A    between atoms: _55  and  _58
REMARK   25  A    between atoms: _58  and  _59
REMARK   26  A    between atoms: _64  and  _65
REMARK   27  A    between atoms: _67  and  _69
REMARK   28  A    between atoms: _69  and  _70
REMARK   29  A    between atoms: _69  and  _72
REMARK   30  A    between atoms: _72  and  _73
REMARK   31  A    between atoms: _73  and  _74
REMARK   32  A    between atoms: _77  and  _79
REMARK   33  A    between atoms: _79  and  _80
REMARK   34  A    between atoms: _79  and  _82
REMARK   35  A    between atoms: _82  and  _83
REMARK   36  A    between atoms: _89  and  _91
REMARK   37  A    between atoms: _91  and  _92
REMARK   38  A    between atoms: _91  and  _94
REMARK   39  A    between atoms: _94  and  _95
REMARK   40  A    between atoms: _98  and  _100
REMARK   41  A    between atoms: _100  and  _101
REMARK   42  A    between atoms: _100  and  _103
REMARK   43  A    between atoms: _103  and  _104
REMARK   44  A    between atoms: _109  and  _111
REMARK   45  A    between atoms: _111  and  _112
REMARK   46  A    between atoms: _111  and  _114
REMARK   47  A    between atoms: _114  and  _115
REMARK   48  A    between atoms: _115  and  _116
REMARK   49  A    between atoms: _121  and  _123
REMARK   50  A    between atoms: _123  and  _124
REMARK   51  A    between atoms: _123  and  _126
REMARK   52  A    between atoms: _126  and  _127
REMARK   53  A    between atoms: _129  and  _131
REMARK   54  A    between atoms: _131  and  _132
REMARK   55  A    between atoms: _131  and  _134
REMARK   56  A    between atoms: _134  and  _135
REMARK   57  A    between atoms: _141  and  _143
REMARK   58  A    between atoms: _143  and  _144
REMARK   59  A    between atoms: _143  and  _146
REMARK   60  A    between atoms: _146  and  _147
REMARK   61  A    between atoms: _150  and  _152
REMARK   62  A    between atoms: _152  and  _153
REMARK   63  A    between atoms: _152  and  _155
REMARK   64  A    between atoms: _155  and  _156
REMARK   65  A    between atoms: _159  and  _161
REMARK   66  A    between atoms: _161  and  _162
REMARK   67  A    between atoms: _161  and  _164
REMARK   68  A    between atoms: _164  and  _165
REMARK   69  A    between atoms: _168  and  _170
REMARK   70  A    between atoms: _170  and  _171
REMARK   71  A    between atoms: _174  and  _176
REMARK   72  A    between atoms: _176  and  _177
REMARK   73  A    between atoms: _179  and  _181
REMARK   74  A    between atoms: _181  and  _182
REMARK   75  A    between atoms: _181  and  _184
REMARK   76  A    between atoms: _184  and  _185
REMARK   77  A    between atoms: _185  and  _186
REMARK   78  A    between atoms: _188  and  _190
REMARK   79  A    between atoms: _190  and  _191
REMARK   80  A    between atoms: _190  and  _193
REMARK   81  A    between atoms: _193  and  _194
REMARK   82  A    between atoms: _197  and  _199
REMARK   83  A    between atoms: _199  and  _200
REMARK   84  A    between atoms: _199  and  _202
REMARK   85  A    between atoms: _202  and  _203
REMARK   86  A    between atoms: _203  and  _204
REMARK   87  A    between atoms: _206  and  _208
REMARK   88  A    between atoms: _208  and  _209
REMARK   89  A    between atoms: _208  and  _211
REMARK   90  A    between atoms: _211  and  _212
REMARK   91  A    between atoms: _215  and  _217
REMARK   92  A    between atoms: _217  and  _218
REMARK   93  A    between atoms: _217  and  _220
REMARK   94  A    between atoms: _220  and  _221
REMARK   95  A    between atoms: _221  and  _222
REMARK   96  A    between atoms: _222  and  _223
REMARK   97  A    between atoms: _232  and  _234
REMARK   98  A    between atoms: _234  and  _235
REMARK   99  A    between atoms: _234  and  _237
REMARK  100  A    between atoms: _237  and  _238
REMARK  101  A    between atoms: _244  and  _246
REMARK  102  A    between atoms: _246  and  _247
REMARK  103  A    between atoms: _246  and  _249
REMARK  104  A    between atoms: _249  and  _250
REMARK  105  A    between atoms: _250  and  _251
REMARK  106  A    between atoms: _254  and  _256
REMARK  107  A    between atoms: _256  and  _257
REMARK  108  A    between atoms: _259  and  _261
REMARK  109  A    between atoms: _261  and  _262
REMARK  110  A    between atoms: _261  and  _264
REMARK  111  A    between atoms: _264  and  _265
REMARK  112  A    between atoms: _268  and  _270
REMARK  113  A    between atoms: _270  and  _271
REMARK  114  A    between atoms: _274  and  _276
REMARK  115  A    between atoms: _276  and  _277
REMARK  116  A    between atoms: _276  and  _279
REMARK  117  A    between atoms: _279  and  _280
REMARK  118  A    between atoms: _280  and  _281
REMARK  119  A    between atoms: _284  and  _286
REMARK  120  A    between atoms: _286  and  _287
REMARK  121  A    between atoms: _286  and  _289
REMARK  122  A    between atoms: _289  and  _290
REMARK  123  A    between atoms: _295  and  _297
REMARK  124  A    between atoms: _297  and  _298
REMARK  125  A    between atoms: _300  and  _302
REMARK  126  A    between atoms: _302  and  _303
REMARK  127  A    between atoms: _302  and  _305
REMARK  128  A    between atoms: _305  and  _306
REMARK  129  A    between atoms: _309  and  _311
REMARK  130  A    between atoms: _311  and  _312
REMARK  131  A    between atoms: _311  and  _314
REMARK  132  A    between atoms: _314  and  _315
REMARK  133  A    between atoms: _318  and  _320
REMARK  134  A    between atoms: _320  and  _321
REMARK  135  A    between atoms: _320  and  _323
REMARK  136  A    between atoms: _323  and  _324
REMARK  137  A    between atoms: _329  and  _331
REMARK  138  A    between atoms: _331  and  _332
REMARK  139  A    between atoms: _331  and  _334
REMARK  140  A    between atoms: _334  and  _335
REMARK  141  A    between atoms: _335  and  _336
REMARK  142  A    between atoms: _341  and  _343
REMARK  143  A    between atoms: _343  and  _344
REMARK  144  A    between atoms: _343  and  _346
REMARK  145  A    between atoms: _346  and  _347
REMARK  146  A    between atoms: _347  and  _348
REMARK  147  A    between atoms: _348  and  _349
REMARK  148  A    between atoms: _358  and  _360
REMARK  149  A    between atoms: _360  and  _361
REMARK  150  A    between atoms: _360  and  _363
REMARK  151  A    between atoms: _363  and  _364
REMARK  152  A    between atoms: _369  and  _370
REMARK  153  A    between atoms: _372  and  _374
REMARK  154  A    between atoms: _374  and  _375
REMARK  155  A    between atoms: _374  and  _377
REMARK  156  A    between atoms: _377  and  _378
REMARK  157  A    between atoms: _381  and  _383
REMARK  158  A    between atoms: _383  and  _384
REMARK  159  A    between atoms: _383  and  _386
REMARK  160  A    between atoms: _386  and  _387
REMARK  161  A    between atoms: _389  and  _391
REMARK  162  A    between atoms: _391  and  _392
REMARK  163  A    between atoms: _391  and  _394
REMARK  164  A    between atoms: _394  and  _395
REMARK  165  A    between atoms: _400  and  _401
REMARK  166  A    between atoms: _403  and  _405
REMARK  167  A    between atoms: _405  and  _406
REMARK  168  A    between atoms: _405  and  _408
REMARK  169  A    between atoms: _408  and  _409
REMARK  170  A    between atoms: _412  and  _414
REMARK  171  A    between atoms: _414  and  _415
REMARK  172  A    between atoms: _414  and  _417
REMARK  173  A    between atoms: _417  and  _418
REMARK  174  A    between atoms: _424  and  _426
REMARK  175  A    between atoms: _426  and  _427
REMARK  176  A    between atoms: _429  and  _431
REMARK  177  A    between atoms: _431  and  _432
REMARK  178  A    between atoms: _431  and  _434
REMARK  179  A    between atoms: _434  and  _435
REMARK  180  A    between atoms: _438  and  _440
REMARK  181  A    between atoms: _440  and  _441
REMARK  182  A    between atoms: _440  and  _443
REMARK  183  A    between atoms: _446  and  _448
REMARK  184  A    between atoms: _448  and  _449
REMARK  185  A    between atoms: _452  and  _454
REMARK  186  A    between atoms: _454  and  _455
REMARK  187  A    between atoms: _454  and  _457
REMARK  188  A    between atoms: _457  and  _458
REMARK  189  A    between atoms: _463  and  _464
REMARK  190  A    between atoms: _466  and  _468
REMARK  191  A    between atoms: _468  and  _469
REMARK  192  A    between atoms: _468  and  _471
REMARK  193  A    between atoms: _471  and  _472
REMARK  194  A    between atoms: _477  and  _478
REMARK  195  A    between atoms: _480  and  _482
REMARK  196  A    between atoms: _482  and  _483
REMARK  197  A    between atoms: _485  and  _487
REMARK  198  A    between atoms: _487  and  _488
REMARK  199  A    between atoms: _487  and  _490
REMARK  200  A    between atoms: _490  and  _491
REMARK  201  A    between atoms: _491  and  _492
REMARK  202  A    between atoms: _492  and  _493
REMARK  203  A    between atoms: _493  and  _494
REMARK  204  A    between atoms: _498  and  _500
REMARK  205  A    between atoms: _500  and  _501
REMARK  206  A    between atoms: _503  and  _505
REMARK  207  A    between atoms: _505  and  _506
REMARK  208  A    between atoms: _505  and  _508
REMARK  209  A    between atoms: _508  and  _509
REMARK  210  A    between atoms: _512  and  _514
REMARK  211  A    between atoms: _514  and  _515
REMARK                            x       y       z     vdW  Elec       q    Type
REMARK                         _______ _______ _______ _____ _____    ______ ____
ROOT
ATOM      1  C   GLY A   3       6.324  10.792  38.144  0.00  0.00    +0.243 C 
ATOM      2  N   LYS A   4       6.792   9.588  38.475  0.00  0.00    -0.297 N 
ATOM      3  H   LYS A   4       6.326   9.046  39.230  0.00  0.00    +0.150 HD
ATOM      4  O   GLY A   3       6.928  11.559  37.395  0.00  0.00    -0.273 OA
ENDROOT
BRANCH   2   5
ATOM      5  CA  LYS A   4       7.951   9.019  37.791  0.00  0.00    +0.149 C 
BRANCH   5   6
ATOM      6  C   LYS A   4       7.470   8.562  36.421  0.00  0.00    +0.241 C 
ATOM      7  O   LYS A   4       6.382   7.985  36.296  0.00  0.00    -0.273 OA
ATOM      8  N   GLY A   5       8.254   8.835  35.389  0.00  0.00    -0.295 N 
ATOM      9  H   GLY A   5       9.187   9.266  35.551  0.00  0.00    +0.150 HD
BRANCH   8  10
ATOM     10  CA  GLY A   5       7.818   8.535  34.016  0.00  0.00    +0.176 C 
BRANCH  10  11
ATOM     11  C   GLY A   5       7.703   7.047  33.768  0.00  0.00    +0.243 C 
ATOM     12  O   GLY A   5       8.166   6.246  34.577  0.00  0.00    -0.273 OA
ATOM     13  N   LEU A   6       7.078   6.675  32.653  0.00  0.00    -0.297 N 
ATOM     14  H   LEU A   6       6.616   7.394  32.060  0.00  0.00    +0.150 HD
BRANCH  13  15
ATOM     15  CA  LEU A   6       7.032   5.276  32.252  0.00  0.00    +0.149 C 
BRANCH  15  16
ATOM     16  C   LEU A   6       8.341   4.927  31.573  0.00  0.00    +0.241 C 
ATOM     17  N   GLY A   7       8.852   3.730  31.856  0.00  0.00    -0.296 N 
ATOM     18  H   GLY A   7       8.324   3.083  32.476  0.00  0.00    +0.150 HD
ATOM     19  O   LEU A   6       8.878   5.729  30.804  0.00  0.00    -0.273 OA
BRANCH  17  20
ATOM     20  CA  GLY A   7      10.144   3.309  31.309  0.00  0.00    +0.163 C 
BRANCH  20  21
ATOM     21  C   GLY A   7      10.076   1.905  30.751  0.00  0.00    +0.229 C 
ATOM     22  O   GLY A   7       9.177   1.125  31.101  0.00  0.00    -0.286 OA
ENDBRANCH  20  21
ENDBRANCH  17  20
ENDBRANCH  15  16
BRANCH  15  23
ATOM     23  CB  LEU A   6       5.868   5.008  31.306  0.00  0.00    +0.029 C 
BRANCH  23  24
ATOM     24  CG  LEU A   6       4.465   5.384  31.782  0.00  0.00    +0.002 C 
ATOM     25  CD2 LEU A   6       4.169   4.773  33.165  0.00  0.00    +0.000 C 
ATOM     26  CD1 LEU A   6       3.456   4.930  30.746  0.00  0.00    +0.000 C 
ENDBRANCH  23  24
ENDBRANCH  15  23
ENDBRANCH  13  15
ENDBRANCH  10  11
ENDBRANCH   8  10
ENDBRANCH   5   6
BRANCH   5  27
ATOM     27  CB  LYS A   4       8.563   7.853  38.586  0.00  0.00    +0.029 C 
BRANCH  27  28
ATOM     28  CG  LYS A   4       9.257   8.259  39.906  0.00  0.00    +0.000 C 
BRANCH  28  29
ATOM     29  CD  LYS A   4      10.521   9.083  39.646  0.00  0.00    -0.024 C 
BRANCH  29  30
ATOM     30  CE  LYS A   4      11.198   9.516  40.941  0.00  0.00    -0.086 C 
BRANCH  30  31
ATOM     31  NZ  LYS A   4      12.526  10.129  40.665  0.00  0.00    +0.380 N 
ATOM     32  HZ1 LYS A   4      12.967  10.416  41.562  0.00  0.00    -0.089 HD
ATOM     33  HZ2 LYS A   4      13.134   9.435  40.185  0.00  0.00    -0.089 HD
ATOM     34  HZ3 LYS A   4      12.402  10.963  40.056  0.00  0.00    -0.089 HD
ENDBRANCH  30  31
ENDBRANCH  29  30
ENDBRANCH  28  29
ENDBRANCH  27  28
ENDBRANCH   5  27
ENDBRANCH   2   5
BRANCH   1  35
ATOM     35  CA  GLY A   3       5.004  11.221  38.761  0.00  0.00    +0.176 C 
BRANCH  35  38
ATOM     36  C   TYR A   2       4.422  10.188  40.881  0.00  0.00    +0.241 C 
ATOM     37  O   TYR A   2       5.092  10.987  41.498  0.00  0.00    -0.273 OA
ATOM     38  N   GLY A   3       4.336  10.195  39.555  0.00  0.00    -0.295 N 
ATOM     39  H   GLY A   3       3.783   9.457  39.075  0.00  0.00    +0.150 HD
BRANCH  36  40
ATOM     40  CA  TYR A   2       3.632   9.114  41.621  0.00  0.00    +0.153 C 
BRANCH  40  42
ATOM     41  C   TYR A   1       4.461   7.642  43.396  0.00  0.00    +0.239 C 
ATOM     42  N   TYR A   2       4.145   8.861  42.971  0.00  0.00    -0.297 N 
ATOM     43  H   TYR A   2       4.266   9.665  43.620  0.00  0.00    +0.150 HD
ATOM     44  O   TYR A   1       4.561   6.676  42.642  0.00  0.00    -0.274 OA
BRANCH  41  45
ATOM     45  CA  TYR A   1       4.730   7.488  44.893  0.00  0.00    +0.149 C 
BRANCH  45  46
ATOM     46  N   TYR A   1       5.352   8.665  45.500  0.00  0.00    -0.238 NA
ATOM     47  H   TYR A   1       4.853   9.575  45.434  0.00  0.00    +0.142 HD
ENDBRANCH  45  46
BRANCH  45  48
ATOM     48  CB  TYR A   1       3.422   7.140  45.636  0.00  0.00    +0.053 C 
BRANCH  48  49
ATOM     49  CG  TYR A   1       3.674   6.778  47.082  0.00  0.00    -0.020 A 
ATOM     50  CD2 TYR A   1       3.752   7.762  48.064  0.00  0.00    -0.001 A 
ATOM     51  CE2 TYR A   1       4.024   7.442  49.391  0.00  0.00    +0.036 A 
ATOM     52  CZ  TYR A   1       4.209   6.122  49.746  0.00  0.00    +0.134 A 
ATOM     53  CE1 TYR A   1       4.138   5.119  48.790  0.00  0.00    +0.036 A 
ATOM     54  CD1 TYR A   1       3.879   5.448  47.461  0.00  0.00    -0.001 A 
BRANCH  52  55
ATOM     55  OH  TYR A   1       4.477   5.797  51.054  0.00  0.00    -0.506 OA
ATOM     56  HH  TYR A   1       3.773   5.188  51.392  0.00  0.00    +0.292 HD
ENDBRANCH  52  55
ENDBRANCH  48  49
ENDBRANCH  45  48
ENDBRANCH  41  45
ENDBRANCH  40  42
BRANCH  40  57
ATOM     57  CB  TYR A   2       2.155   9.520  41.702  0.00  0.00    +0.055 C 
BRANCH  57  58
ATOM     58  CG  TYR A   2       1.257   8.388  42.181  0.00  0.00    -0.020 A 
ATOM     59  CD2 TYR A   2       0.609   8.455  43.413  0.00  0.00    -0.001 A 
ATOM     60  CE2 TYR A   2      -0.201   7.408  43.858  0.00  0.00    +0.036 A 
ATOM     61  CZ  TYR A   2      -0.375   6.285  43.041  0.00  0.00    +0.134 A 
ATOM     62  CE1 TYR A   2       0.256   6.205  41.812  0.00  0.00    +0.036 A 
ATOM     63  CD1 TYR A   2       1.062   7.258  41.393  0.00  0.00    -0.001 A 
BRANCH  61  64
ATOM     64  OH  TYR A   2      -1.173   5.245  43.444  0.00  0.00    -0.506 OA
ATOM     65  HH  TYR A   2      -1.178   4.544  42.745  0.00  0.00    +0.292 HD
ENDBRANCH  61  64
ENDBRANCH  57  58
ENDBRANCH  40  57
ENDBRANCH  36  40
ENDBRANCH  35  38
ENDBRANCH   1  35
TORSDOF 27
REMARK  Name = ../refined-set-2016/2y7i/2y7i_pocket.pdb
REMARK  211 active torsions:
REMARK  status: ('A' for Active; 'I' for Inactive)
REMARK    1  A    between atoms: _1  and  _3
REMARK    2  A    between atoms: _3  and  _4
REMARK    3  A    between atoms: _3  and  _6
REMARK    4  A    between atoms: _6  and  _7
REMARK    5  A    between atoms: _10  and  _12
REMARK    6  A    between atoms: _12  and  _13
REMARK    7  A    between atoms: _12  and  _15
REMARK    8  A    between atoms: _15  and  _16
REMARK    9  A    between atoms: _18  and  _20
REMARK   10  A    between atoms: _20  and  _21
REMARK   11  A    between atoms: _24  and  _26
REMARK   12  A    between atoms: _26  and  _27
REMARK   13  A    between atoms: _26  and  _29
REMARK   14  A    between atoms: _29  and  _30
REMARK   15  A    between atoms: _33  and  _35
REMARK   16  A    between atoms: _35  and  _36
REMARK   17  A    between atoms: _35  and  _38
REMARK   18  A    between atoms: _38  and  _39
REMARK   19  A    between atoms: _44  and  _45
REMARK   20  A    between atoms: _47  and  _49
REMARK   21  A    between atoms: _49  and  _50
REMARK   22  A    between atoms: _53  and  _55
REMARK   23  A    between atoms: _55  and  _56
REMARK   24  A    between atoms: _55  and  _58
REMARK   25  A    between atoms: _58  and  _59
REMARK   26  A    between atoms: _64  and  _65
REMARK   27  A    between atoms: _67  and  _69
REMARK   28  A    between atoms: _69  and  _70
REMARK   29  A    between atoms: _69  and  _72
REMARK   30  A    between atoms: _72  and  _73
REMARK   31  A    between atoms: _73  and  _74
REMARK   32  A    between atoms: _77  and  _79
REMARK   33  A    between atoms: _79  and  _80
REMARK   34  A    between atoms: _79  and  _82
REMARK   35  A    between atoms: _82  and  _83
REMARK   36  A    between atoms: _89  and  _91
REMARK   37  A    between atoms: _91  and  _92
REMARK   38  A    between atoms: _91  and  _94
REMARK   39  A    between atoms: _94  and  _95
REMARK   40  A    between atoms: _98  and  _100
REMARK   41  A    between atoms: _100  and  _101
REMARK   42  A    between atoms: _100  and  _103
REMARK   43  A    between atoms: _103  and  _104
REMARK   44  A    between atoms: _109  and  _111
REMARK   45  A    between atoms: _111  and  _112
REMARK   46  A    between atoms: _111  and  _114
REMARK   47  A    between atoms: _114  and  _115
REMARK   48  A    between atoms: _115  and  _116
REMARK   49  A    between atoms: _121  and  _123
REMARK   50  A    between atoms: _123  and  _124
REMARK   51  A    between atoms: _123  and  _126
REMARK   52  A    between atoms: _126  and  _127
REMARK   53  A    between atoms: _129  and  _131
REMARK   54  A    between atoms: _131  and  _132
REMARK   55  A    between atoms: _131  and  _134
REMARK   56  A    between atoms: _134  and  _135
REMARK   57  A    between atoms: _141  and  _143
REMARK   58  A    between atoms: _143  and  _144
REMARK   59  A    between atoms: _143  and  _146
REMARK   60  A    between atoms: _146  and  _147
REMARK   61  A    between atoms: _150  and  _152
REMARK   62  A    between atoms: _152  and  _153
REMARK   63  A    between atoms: _152  and  _155
REMARK   64  A    between atoms: _155  and  _156
REMARK   65  A    between atoms: _159  and  _161
REMARK   66  A    between atoms: _161  and  _162
REMARK   67  A    between atoms: _161  and  _164
REMARK   68  A    between atoms: _164  and  _165
REMARK   69  A    between atoms: _168  and  _170
REMARK   70  A    between atoms: _170  and  _171
REMARK   71  A    between atoms: _174  and  _176
REMARK   72  A    between atoms: _176  and  _177
REMARK   73  A    between atoms: _179  and  _181
REMARK   74  A    between atoms: _181  and  _182
REMARK   75  A    between atoms: _181  and  _184
REMARK   76  A    between atoms: _184  and  _185
REMARK   77  A    between atoms: _185  and  _186
REMARK   78  A    between atoms: _188  and  _190
REMARK   79  A    between atoms: _190  and  _191
REMARK   80  A    between atoms: _190  and  _193
REMARK   81  A    between atoms: _193  and  _194
REMARK   82  A    between atoms: _197  and  _199
REMARK   83  A    between atoms: _199  and  _200
REMARK   84  A    between atoms: _199  and  _202
REMARK   85  A    between atoms: _202  and  _203
REMARK   86  A    between atoms: _203  and  _204
REMARK   87  A    between atoms: _206  and  _208
REMARK   88  A    between atoms: _208  and  _209
REMARK   89  A    between atoms: _208  and  _211
REMARK   90  A    between atoms: _211  and  _212
REMARK   91  A    between atoms: _215  and  _217
REMARK   92  A    between atoms: _217  and  _218
REMARK   93  A    between atoms: _217  and  _220
REMARK   94  A    between atoms: _220  and  _221
REMARK   95  A    between atoms: _221  and  _222
REMARK   96  A    between atoms: _222  and  _223
REMARK   97  A    between atoms: _232  and  _234
REMARK   98  A    between atoms: _234  and  _235
REMARK   99  A    between atoms: _234  and  _237
REMARK  100  A    between atoms: _237  and  _238
REMARK  101  A    between atoms: _244  and  _246
REMARK  102  A    between atoms: _246  and  _247
REMARK  103  A    between atoms: _246  and  _249
REMARK  104  A    between atoms: _249  and  _250
REMARK  105  A    between atoms: _250  and  _251
REMARK  106  A    between atoms: _254  and  _256
REMARK  107  A    between atoms: _256  and  _257
REMARK  108  A    between atoms: _259  and  _261
REMARK  109  A    between atoms: _261  and  _262
REMARK  110  A    between atoms: _261  and  _264
REMARK  111  A    between atoms: _264  and  _265
REMARK  112  A    between atoms: _268  and  _270
REMARK  113  A    between atoms: _270  and  _271
REMARK  114  A    between atoms: _274  and  _276
REMARK  115  A    between atoms: _276  and  _277
REMARK  116  A    between atoms: _276  and  _279
REMARK  117  A    between atoms: _279  and  _280
REMARK  118  A    between atoms: _280  and  _281
REMARK  119  A    between atoms: _284  and  _286
REMARK  120  A    between atoms: _286  and  _287
REMARK  121  A    between atoms: _286  and  _289
REMARK  122  A    between atoms: _289  and  _290
REMARK  123  A    between atoms: _295  and  _297
REMARK  124  A    between atoms: _297  and  _298
REMARK  125  A    between atoms: _300  and  _302
REMARK  126  A    between atoms: _302  and  _303
REMARK  127  A    between atoms: _302  and  _305
REMARK  128  A    between atoms: _305  and  _306
REMARK  129  A    between atoms: _309  and  _311
REMARK  130  A    between atoms: _311  and  _312
REMARK  131  A    between atoms: _311  and  _314
REMARK  132  A    between atoms: _314  and  _315
REMARK  133  A    between atoms: _318  and  _320
REMARK  134  A    between atoms: _320  and  _321
REMARK  135  A    between atoms: _320  and  _323
REMARK  136  A    between atoms: _323  and  _324
REMARK  137  A    between atoms: _329  and  _331
REMARK  138  A    between atoms: _331  and  _332
REMARK  139  A    between atoms: _331  and  _334
REMARK  140  A    between atoms: _334  and  _335
REMARK  141  A    between atoms: _335  and  _336
REMARK  142  A    between atoms: _341  and  _343
REMARK  143  A    between atoms: _343  and  _344
REMARK  144  A    between atoms: _343  and  _346
REMARK  145  A    between atoms: _346  and  _347
REMARK  146  A    between atoms: _347  and  _348
REMARK  147  A    between atoms: _348  and  _349
REMARK  148  A    between atoms: _358  and  _360
REMARK  149  A    between atoms: _360  and  _361
REMARK  150  A    between atoms: _360  and  _363
REMARK  151  A    between atoms: _363  and  _364
REMARK  152  A    between atoms: _369  and  _370
REMARK  153  A    between atoms: _372  and  _374
REMARK  154  A    between atoms: _374  and  _375
REMARK  155  A    between atoms: _374  and  _377
REMARK  156  A    between atoms: _377  and  _378
REMARK  157  A    between atoms: _381  and  _383
REMARK  158  A    between atoms: _383  and  _384
REMARK  159  A    between atoms: _383  and  _386
REMARK  160  A    between atoms: _386  and  _387
REMARK  161  A    between atoms: _389  and  _391
REMARK  162  A    between atoms: _391  and  _392
REMARK  163  A    between atoms: _391  and  _394
REMARK  164  A    between atoms: _394  and  _395
REMARK  165  A    between atoms: _400  and  _401
REMARK  166  A    between atoms: _403  and  _405
REMARK  167  A    between atoms: _405  and  _406
REMARK  168  A    between atoms: _405  and  _408
REMARK  169  A    between atoms: _408  and  _409
REMARK  170  A    between atoms: _412  and  _414
REMARK  171  A    between atoms: _414  and  _415
REMARK  172  A    between atoms: _414  and  _417
REMARK  173  A    between atoms: _417  and  _418
REMARK  174  A    between atoms: _424  and  _426
REMARK  175  A    between atoms: _426  and  _427
REMARK  176  A    between atoms: _429  and  _431
REMARK  177  A    between atoms: _431  and  _432
REMARK  178  A    between atoms: _431  and  _434
REMARK  179  A    between atoms: _434  and  _435
REMARK  180  A    between atoms: _438  and  _440
REMARK  181  A    between atoms: _440  and  _441
REMARK  182  A    between atoms: _440  and  _443
REMARK  183  A    between atoms: _446  and  _448
REMARK  184  A    between atoms: _448  and  _449
REMARK  185  A    between atoms: _452  and  _454
REMARK  186  A    between atoms: _454  and  _455
REMARK  187  A    between atoms: _454  and  _457
REMARK  188  A    between atoms: _457  and  _458
REMARK  189  A    between atoms: _463  and  _464
REMARK  190  A    between atoms: _466  and  _468
REMARK  191  A    between atoms: _468  and  _469
REMARK  192  A    between atoms: _468  and  _471
REMARK  193  A    between atoms: _471  and  _472
REMARK  194  A    between atoms: _477  and  _478
REMARK  195  A    between atoms: _480  and  _482
REMARK  196  A    between atoms: _482  and  _483
REMARK  197  A    between atoms: _485  and  _487
REMARK  198  A    between atoms: _487  and  _488
REMARK  199  A    between atoms: _487  and  _490
REMARK  200  A    between atoms: _490  and  _491
REMARK  201  A    between atoms: _491  and  _492
REMARK  202  A    between atoms: _492  and  _493
REMARK  203  A    between atoms: _493  and  _494
REMARK  204  A    between atoms: _498  and  _500
REMARK  205  A    between atoms: _500  and  _501
REMARK  206  A    between atoms: _503  and  _505
REMARK  207  A    between atoms: _505  and  _506
REMARK  208  A    between atoms: _505  and  _508
REMARK  209  A    between atoms: _508  and  _509
REMARK  210  A    between atoms: _512  and  _514
REMARK  211  A    between atoms: _514  and  _515
REMARK                            x       y       z     vdW  Elec       q    Type
REMARK                         _______ _______ _______ _____ _____    ______ ____
ROOT
ATOM      1  O   HOH     1      -8.297  -3.102  32.645  0.00  0.00    +0.000 OA
ENDROOT
TORSDOF 0
REMARK  Name = ../refined-set-2016/2y7i/2y7i_pocket.pdb
REMARK  211 active torsions:
REMARK  status: ('A' for Active; 'I' for Inactive)
REMARK    1  A    between atoms: _1  and  _3
REMARK    2  A    between atoms: _3  and  _4
REMARK    3  A    between atoms: _3  and  _6
REMARK    4  A    between atoms: _6  and  _7
REMARK    5  A    between atoms: _10  and  _12
REMARK    6  A    between atoms: _12  and  _13
REMARK    7  A    between atoms: _12  and  _15
REMARK    8  A    between atoms: _15  and  _16
REMARK    9  A    between atoms: _18  and  _20
REMARK   10  A    between atoms: _20  and  _21
REMARK   11  A    between atoms: _24  and  _26
REMARK   12  A    between atoms: _26  and  _27
REMARK   13  A    between atoms: _26  and  _29
REMARK   14  A    between atoms: _29  and  _30
REMARK   15  A    between atoms: _33  and  _35
REMARK   16  A    between atoms: _35  and  _36
REMARK   17  A    between atoms: _35  and  _38
REMARK   18  A    between atoms: _38  and  _39
REMARK   19  A    between atoms: _44  and  _45
REMARK   20  A    between atoms: _47  and  _49
REMARK   21  A    between atoms: _49  and  _50
REMARK   22  A    between atoms: _53  and  _55
REMARK   23  A    between atoms: _55  and  _56
REMARK   24  A    between atoms: _55  and  _58
REMARK   25  A    between atoms: _58  and  _59
REMARK   26  A    between atoms: _64  and  _65
REMARK   27  A    between atoms: _67  and  _69
REMARK   28  A    between atoms: _69  and  _70
REMARK   29  A    between atoms: _69  and  _72
REMARK   30  A    between atoms: _72  and  _73
REMARK   31  A    between atoms: _73  and  _74
REMARK   32  A    between atoms: _77  and  _79
REMARK   33  A    between atoms: _79  and  _80
REMARK   34  A    between atoms: _79  and  _82
REMARK   35  A    between atoms: _82  and  _83
REMARK   36  A    between atoms: _89  and  _91
REMARK   37  A    between atoms: _91  and  _92
REMARK   38  A    between atoms: _91  and  _94
REMARK   39  A    between atoms: _94  and  _95
REMARK   40  A    between atoms: _98  and  _100
REMARK   41  A    between atoms: _100  and  _101
REMARK   42  A    between atoms: _100  and  _103
REMARK   43  A    between atoms: _103  and  _104
REMARK   44  A    between atoms: _109  and  _111
REMARK   45  A    between atoms: _111  and  _112
REMARK   46  A    between atoms: _111  and  _114
REMARK   47  A    between atoms: _114  and  _115
REMARK   48  A    between atoms: _115  and  _116
REMARK   49  A    between atoms: _121  and  _123
REMARK   50  A    between atoms: _123  and  _124
REMARK   51  A    between atoms: _123  and  _126
REMARK   52  A    between atoms: _126  and  _127
REMARK   53  A    between atoms: _129  and  _131
REMARK   54  A    between atoms: _131  and  _132
REMARK   55  A    between atoms: _131  and  _134
REMARK   56  A    between atoms: _134  and  _135
REMARK   57  A    between atoms: _141  and  _143
REMARK   58  A    between atoms: _143  and  _144
REMARK   59  A    between atoms: _143  and  _146
REMARK   60  A    between atoms: _146  and  _147
REMARK   61  A    between atoms: _150  and  _152
REMARK   62  A    between atoms: _152  and  _153
REMARK   63  A    between atoms: _152  and  _155
REMARK   64  A    between atoms: _155  and  _156
REMARK   65  A    between atoms: _159  and  _161
REMARK   66  A    between atoms: _161  and  _162
REMARK   67  A    between atoms: _161  and  _164
REMARK   68  A    between atoms: _164  and  _165
REMARK   69  A    between atoms: _168  and  _170
REMARK   70  A    between atoms: _170  and  _171
REMARK   71  A    between atoms: _174  and  _176
REMARK   72  A    between atoms: _176  and  _177
REMARK   73  A    between atoms: _179  and  _181
REMARK   74  A    between atoms: _181  and  _182
REMARK   75  A    between atoms: _181  and  _184
REMARK   76  A    between atoms: _184  and  _185
REMARK   77  A    between atoms: _185  and  _186
REMARK   78  A    between atoms: _188  and  _190
REMARK   79  A    between atoms: _190  and  _191
REMARK   80  A    between atoms: _190  and  _193
REMARK   81  A    between atoms: _193  and  _194
REMARK   82  A    between atoms: _197  and  _199
REMARK   83  A    between atoms: _199  and  _200
REMARK   84  A    between atoms: _199  and  _202
REMARK   85  A    between atoms: _202  and  _203
REMARK   86  A    between atoms: _203  and  _204
REMARK   87  A    between atoms: _206  and  _208
REMARK   88  A    between atoms: _208  and  _209
REMARK   89  A    between atoms: _208  and  _211
REMARK   90  A    between atoms: _211  and  _212
REMARK   91  A    between atoms: _215  and  _217
REMARK   92  A    between atoms: _217  and  _218
REMARK   93  A    between atoms: _217  and  _220
REMARK   94  A    between atoms: _220  and  _221
REMARK   95  A    between atoms: _221  and  _222
REMARK   96  A    between atoms: _222  and  _223
REMARK   97  A    between atoms: _232  and  _234
REMARK   98  A    between atoms: _234  and  _235
REMARK   99  A    between atoms: _234  and  _237
REMARK  100  A    between atoms: _237  and  _238
REMARK  101  A    between atoms: _244  and  _246
REMARK  102  A    between atoms: _246  and  _247
REMARK  103  A    between atoms: _246  and  _249
REMARK  104  A    between atoms: _249  and  _250
REMARK  105  A    between atoms: _250  and  _251
REMARK  106  A    between atoms: _254  and  _256
REMARK  107  A    between atoms: _256  and  _257
REMARK  108  A    between atoms: _259  and  _261
REMARK  109  A    between atoms: _261  and  _262
REMARK  110  A    between atoms: _261  and  _264
REMARK  111  A    between atoms: _264  and  _265
REMARK  112  A    between atoms: _268  and  _270
REMARK  113  A    between atoms: _270  and  _271
REMARK  114  A    between atoms: _274  and  _276
REMARK  115  A    between atoms: _276  and  _277
REMARK  116  A    between atoms: _276  and  _279
REMARK  117  A    between atoms: _279  and  _280
REMARK  118  A    between atoms: _280  and  _281
REMARK  119  A    between atoms: _284  and  _286
REMARK  120  A    between atoms: _286  and  _287
REMARK  121  A    between atoms: _286  and  _289
REMARK  122  A    between atoms: _289  and  _290
REMARK  123  A    between atoms: _295  and  _297
REMARK  124  A    between atoms: _297  and  _298
REMARK  125  A    between atoms: _300  and  _302
REMARK  126  A    between atoms: _302  and  _303
REMARK  127  A    between atoms: _302  and  _305
REMARK  128  A    between atoms: _305  and  _306
REMARK  129  A    between atoms: _309  and  _311
REMARK  130  A    between atoms: _311  and  _312
REMARK  131  A    between atoms: _311  and  _314
REMARK  132  A    between atoms: _314  and  _315
REMARK  133  A    between atoms: _318  and  _320
REMARK  134  A    between atoms: _320  and  _321
REMARK  135  A    between atoms: _320  and  _323
REMARK  136  A    between atoms: _323  and  _324
REMARK  137  A    between atoms: _329  and  _331
REMARK  138  A    between atoms: _331  and  _332
REMARK  139  A    between atoms: _331  and  _334
REMARK  140  A    between atoms: _334  and  _335
REMARK  141  A    between atoms: _335  and  _336
REMARK  142  A    between atoms: _341  and  _343
REMARK  143  A    between atoms: _343  and  _344
REMARK  144  A    between atoms: _343  and  _346
REMARK  145  A    between atoms: _346  and  _347
REMARK  146  A    between atoms: _347  and  _348
REMARK  147  A    between atoms: _348  and  _349
REMARK  148  A    between atoms: _358  and  _360
REMARK  149  A    between atoms: _360  and  _361
REMARK  150  A    between atoms: _360  and  _363
REMARK  151  A    between atoms: _363  and  _364
REMARK  152  A    between atoms: _369  and  _370
REMARK  153  A    between atoms: _372  and  _374
REMARK  154  A    between atoms: _374  and  _375
REMARK  155  A    between atoms: _374  and  _377
REMARK  156  A    between atoms: _377  and  _378
REMARK  157  A    between atoms: _381  and  _383
REMARK  158  A    between atoms: _383  and  _384
REMARK  159  A    between atoms: _383  and  _386
REMARK  160  A    between atoms: _386  and  _387
REMARK  161  A    between atoms: _389  and  _391
REMARK  162  A    between atoms: _391  and  _392
REMARK  163  A    between atoms: _391  and  _394
REMARK  164  A    between atoms: _394  and  _395
REMARK  165  A    between atoms: _400  and  _401
REMARK  166  A    between atoms: _403  and  _405
REMARK  167  A    between atoms: _405  and  _406
REMARK  168  A    between atoms: _405  and  _408
REMARK  169  A    between atoms: _408  and  _409
REMARK  170  A    between atoms: _412  and  _414
REMARK  171  A    between atoms: _414  and  _415
REMARK  172  A    between atoms: _414  and  _417
REMARK  173  A    between atoms: _417  and  _418
REMARK  174  A    between atoms: _424  and  _426
REMARK  175  A    between atoms: _426  and  _427
REMARK  176  A    between atoms: _429  and  _431
REMARK  177  A    between atoms: _431  and  _432
REMARK  178  A    between atoms: _431  and  _434
REMARK  179  A    between atoms: _434  and  _435
REMARK  180  A    between atoms: _438  and  _440
REMARK  181  A    between atoms: _440  and  _441
REMARK  182  A    between atoms: _440  and  _443
REMARK  183  A    between atoms: _446  and  _448
REMARK  184  A    between atoms: _448  and  _449
REMARK  185  A    between atoms: _452  and  _454
REMARK  186  A    between atoms: _454  and  _455
REMARK  187  A    between atoms: _454  and  _457
REMARK  188  A    between atoms: _457  and  _458
REMARK  189  A    between atoms: _463  and  _464
REMARK  190  A    between atoms: _466  and  _468
REMARK  191  A    between atoms: _468  and  _469
REMARK  192  A    between atoms: _468  and  _471
REMARK  193  A    between atoms: _471  and  _472
REMARK  194  A    between atoms: _477  and  _478
REMARK  195  A    between atoms: _480  and  _482
REMARK  196  A    between atoms: _482  and  _483
REMARK  197  A    between atoms: _485  and  _487
REMARK  198  A    between atoms: _487  and  _488
REMARK  199  A    between atoms: _487  and  _490
REMARK  200  A    between atoms: _490  and  _491
REMARK  201  A    between atoms: _491  and  _492
REMARK  202  A    between atoms: _492  and  _493
REMARK  203  A    between atoms: _493  and  _494
REMARK  204  A    between atoms: _498  and  _500
REMARK  205  A    between atoms: _500  and  _501
REMARK  206  A    between atoms: _503  and  _505
REMARK  207  A    between atoms: _505  and  _506
REMARK  208  A    between atoms: _505  and  _508
REMARK  209  A    between atoms: _508  and  _509
REMARK  210  A    between atoms: _512  and  _514
REMARK  211  A    between atoms: _514  and  _515
REMARK                            x       y       z     vdW  Elec       q    Type
REMARK                         _______ _______ _______ _____ _____    ______ ____
ROOT
ATOM      1  O   HOH     1      -2.817   7.691  32.982  0.00  0.00    +0.000 OA
ENDROOT
TORSDOF 0
REMARK  Name = ../refined-set-2016/2y7i/2y7i_pocket.pdb
REMARK  211 active torsions:
REMARK  status: ('A' for Active; 'I' for Inactive)
REMARK    1  A    between atoms: _1  and  _3
REMARK    2  A    between atoms: _3  and  _4
REMARK    3  A    between atoms: _3  and  _6
REMARK    4  A    between atoms: _6  and  _7
REMARK    5  A    between atoms: _10  and  _12
REMARK    6  A    between atoms: _12  and  _13
REMARK    7  A    between atoms: _12  and  _15
REMARK    8  A    between atoms: _15  and  _16
REMARK    9  A    between atoms: _18  and  _20
REMARK   10  A    between atoms: _20  and  _21
REMARK   11  A    between atoms: _24  and  _26
REMARK   12  A    between atoms: _26  and  _27
REMARK   13  A    between atoms: _26  and  _29
REMARK   14  A    between atoms: _29  and  _30
REMARK   15  A    between atoms: _33  and  _35
REMARK   16  A    between atoms: _35  and  _36
REMARK   17  A    between atoms: _35  and  _38
REMARK   18  A    between atoms: _38  and  _39
REMARK   19  A    between atoms: _44  and  _45
REMARK   20  A    between atoms: _47  and  _49
REMARK   21  A    between atoms: _49  and  _50
REMARK   22  A    between atoms: _53  and  _55
REMARK   23  A    between atoms: _55  and  _56
REMARK   24  A    between atoms: _55  and  _58
REMARK   25  A    between atoms: _58  and  _59
REMARK   26  A    between atoms: _64  and  _65
REMARK   27  A    between atoms: _67  and  _69
REMARK   28  A    between atoms: _69  and  _70
REMARK   29  A    between atoms: _69  and  _72
REMARK   30  A    between atoms: _72  and  _73
REMARK   31  A    between atoms: _73  and  _74
REMARK   32  A    between atoms: _77  and  _79
REMARK   33  A    between atoms: _79  and  _80
REMARK   34  A    between atoms: _79  and  _82
REMARK   35  A    between atoms: _82  and  _83
REMARK   36  A    between atoms: _89  and  _91
REMARK   37  A    between atoms: _91  and  _92
REMARK   38  A    between atoms: _91  and  _94
REMARK   39  A    between atoms: _94  and  _95
REMARK   40  A    between atoms: _98  and  _100
REMARK   41  A    between atoms: _100  and  _101
REMARK   42  A    between atoms: _100  and  _103
REMARK   43  A    between atoms: _103  and  _104
REMARK   44  A    between atoms: _109  and  _111
REMARK   45  A    between atoms: _111  and  _112
REMARK   46  A    between atoms: _111  and  _114
REMARK   47  A    between atoms: _114  and  _115
REMARK   48  A    between atoms: _115  and  _116
REMARK   49  A    between atoms: _121  and  _123
REMARK   50  A    between atoms: _123  and  _124
REMARK   51  A    between atoms: _123  and  _126
REMARK   52  A    between atoms: _126  and  _127
REMARK   53  A    between atoms: _129  and  _131
REMARK   54  A    between atoms: _131  and  _132
REMARK   55  A    between atoms: _131  and  _134
REMARK   56  A    between atoms: _134  and  _135
REMARK   57  A    between atoms: _141  and  _143
REMARK   58  A    between atoms: _143  and  _144
REMARK   59  A    between atoms: _143  and  _146
REMARK   60  A    between atoms: _146  and  _147
REMARK   61  A    between atoms: _150  and  _152
REMARK   62  A    between atoms: _152  and  _153
REMARK   63  A    between atoms: _152  and  _155
REMARK   64  A    between atoms: _155  and  _156
REMARK   65  A    between atoms: _159  and  _161
REMARK   66  A    between atoms: _161  and  _162
REMARK   67  A    between atoms: _161  and  _164
REMARK   68  A    between atoms: _164  and  _165
REMARK   69  A    between atoms: _168  and  _170
REMARK   70  A    between atoms: _170  and  _171
REMARK   71  A    between atoms: _174  and  _176
REMARK   72  A    between atoms: _176  and  _177
REMARK   73  A    between atoms: _179  and  _181
REMARK   74  A    between atoms: _181  and  _182
REMARK   75  A    between atoms: _181  and  _184
REMARK   76  A    between atoms: _184  and  _185
REMARK   77  A    between atoms: _185  and  _186
REMARK   78  A    between atoms: _188  and  _190
REMARK   79  A    between atoms: _190  and  _191
REMARK   80  A    between atoms: _190  and  _193
REMARK   81  A    between atoms: _193  and  _194
REMARK   82  A    between atoms: _197  and  _199
REMARK   83  A    between atoms: _199  and  _200
REMARK   84  A    between atoms: _199  and  _202
REMARK   85  A    between atoms: _202  and  _203
REMARK   86  A    between atoms: _203  and  _204
REMARK   87  A    between atoms: _206  and  _208
REMARK   88  A    between atoms: _208  and  _209
REMARK   89  A    between atoms: _208  and  _211
REMARK   90  A    between atoms: _211  and  _212
REMARK   91  A    between atoms: _215  and  _217
REMARK   92  A    between atoms: _217  and  _218
REMARK   93  A    between atoms: _217  and  _220
REMARK   94  A    between atoms: _220  and  _221
REMARK   95  A    between atoms: _221  and  _222
REMARK   96  A    between atoms: _222  and  _223
REMARK   97  A    between atoms: _232  and  _234
REMARK   98  A    between atoms: _234  and  _235
REMARK   99  A    between atoms: _234  and  _237
REMARK  100  A    between atoms: _237  and  _238
REMARK  101  A    between atoms: _244  and  _246
REMARK  102  A    between atoms: _246  and  _247
REMARK  103  A    between atoms: _246  and  _249
REMARK  104  A    between atoms: _249  and  _250
REMARK  105  A    between atoms: _250  and  _251
REMARK  106  A    between atoms: _254  and  _256
REMARK  107  A    between atoms: _256  and  _257
REMARK  108  A    between atoms: _259  and  _261
REMARK  109  A    between atoms: _261  and  _262
REMARK  110  A    between atoms: _261  and  _264
REMARK  111  A    between atoms: _264  and  _265
REMARK  112  A    between atoms: _268  and  _270
REMARK  113  A    between atoms: _270  and  _271
REMARK  114  A    between atoms: _274  and  _276
REMARK  115  A    between atoms: _276  and  _277
REMARK  116  A    between atoms: _276  and  _279
REMARK  117  A    between atoms: _279  and  _280
REMARK  118  A    between atoms: _280  and  _281
REMARK  119  A    between atoms: _284  and  _286
REMARK  120  A    between atoms: _286  and  _287
REMARK  121  A    between atoms: _286  and  _289
REMARK  122  A    between atoms: _289  and  _290
REMARK  123  A    between atoms: _295  and  _297
REMARK  124  A    between atoms: _297  and  _298
REMARK  125  A    between atoms: _300  and  _302
REMARK  126  A    between atoms: _302  and  _303
REMARK  127  A    between atoms: _302  and  _305
REMARK  128  A    between atoms: _305  and  _306
REMARK  129  A    between atoms: _309  and  _311
REMARK  130  A    between atoms: _311  and  _312
REMARK  131  A    between atoms: _311  and  _314
REMARK  132  A    between atoms: _314  and  _315
REMARK  133  A    between atoms: _318  and  _320
REMARK  134  A    between atoms: _320  and  _321
REMARK  135  A    between atoms: _320  and  _323
REMARK  136  A    between atoms: _323  and  _324
REMARK  137  A    between atoms: _329  and  _331
REMARK  138  A    between atoms: _331  and  _332
REMARK  139  A    between atoms: _331  and  _334
REMARK  140  A    between atoms: _334  and  _335
REMARK  141  A    between atoms: _335  and  _336
REMARK  142  A    between atoms: _341  and  _343
REMARK  143  A    between atoms: _343  and  _344
REMARK  144  A    between atoms: _343  and  _346
REMARK  145  A    between atoms: _346  and  _347
REMARK  146  A    between atoms: _347  and  _348
REMARK  147  A    between atoms: _348  and  _349
REMARK  148  A    between atoms: _358  and  _360
REMARK  149  A    between atoms: _360  and  _361
REMARK  150  A    between atoms: _360  and  _363
REMARK  151  A    between atoms: _363  and  _364
REMARK  152  A    between atoms: _369  and  _370
REMARK  153  A    between atoms: _372  and  _374
REMARK  154  A    between atoms: _374  and  _375
REMARK  155  A    between atoms: _374  and  _377
REMARK  156  A    between atoms: _377  and  _378
REMARK  157  A    between atoms: _381  and  _383
REMARK  158  A    between atoms: _383  and  _384
REMARK  159  A    between atoms: _383  and  _386
REMARK  160  A    between atoms: _386  and  _387
REMARK  161  A    between atoms: _389  and  _391
REMARK  162  A    between atoms: _391  and  _392
REMARK  163  A    between atoms: _391  and  _394
REMARK  164  A    between atoms: _394  and  _395
REMARK  165  A    between atoms: _400  and  _401
REMARK  166  A    between atoms: _403  and  _405
REMARK  167  A    between atoms: _405  and  _406
REMARK  168  A    between atoms: _405  and  _408
REMARK  169  A    between atoms: _408  and  _409
REMARK  170  A    between atoms: _412  and  _414
REMARK  171  A    between atoms: _414  and  _415
REMARK  172  A    between atoms: _414  and  _417
REMARK  173  A    between atoms: _417  and  _418
REMARK  174  A    between atoms: _424  and  _426
REMARK  175  A    between atoms: _426  and  _427
REMARK  176  A    between atoms: _429  and  _431
REMARK  177  A    between atoms: _431  and  _432
REMARK  178  A    between atoms: _431  and  _434
REMARK  179  A    between atoms: _434  and  _435
REMARK  180  A    between atoms: _438  and  _440
REMARK  181  A    between atoms: _440  and  _441
REMARK  182  A    between atoms: _440  and  _443
REMARK  183  A    between atoms: _446  and  _448
REMARK  184  A    between atoms: _448  and  _449
REMARK  185  A    between atoms: _452  and  _454
REMARK  186  A    between atoms: _454  and  _455
REMARK  187  A    between atoms: _454  and  _457
REMARK  188  A    between atoms: _457  and  _458
REMARK  189  A    between atoms: _463  and  _464
REMARK  190  A    between atoms: _466  and  _468
REMARK  191  A    between atoms: _468  and  _469
REMARK  192  A    between atoms: _468  and  _471
REMARK  193  A    between atoms: _471  and  _472
REMARK  194  A    between atoms: _477  and  _478
REMARK  195  A    between atoms: _480  and  _482
REMARK  196  A    between atoms: _482  and  _483
REMARK  197  A    between atoms: _485  and  _487
REMARK  198  A    between atoms: _487  and  _488
REMARK  199  A    between atoms: _487  and  _490
REMARK  200  A    between atoms: _490  and  _491
REMARK  201  A    between atoms: _491  and  _492
REMARK  202  A    between atoms: _492  and  _493
REMARK  203  A    between atoms: _493  and  _494
REMARK  204  A    between atoms: _498  and  _500
REMARK  205  A    between atoms: _500  and  _501
REMARK  206  A    between atoms: _503  and  _505
REMARK  207  A    between atoms: _505  and  _506
REMARK  208  A    between atoms: _505  and  _508
REMARK  209  A    between atoms: _508  and  _509
REMARK  210  A    between atoms: _512  and  _514
REMARK  211  A    between atoms: _514  and  _515
REMARK                            x       y       z     vdW  Elec       q    Type
REMARK                         _______ _______ _______ _____ _____    ______ ____
ROOT
ATOM      1  O   HOH     1      -1.374 -10.567  32.434  0.00  0.00    +0.000 OA
ENDROOT
TORSDOF 0
REMARK  Name = ../refined-set-2016/2y7i/2y7i_pocket.pdb
REMARK  211 active torsions:
REMARK  status: ('A' for Active; 'I' for Inactive)
REMARK    1  A    between atoms: _1  and  _3
REMARK    2  A    between atoms: _3  and  _4
REMARK    3  A    between atoms: _3  and  _6
REMARK    4  A    between atoms: _6  and  _7
REMARK    5  A    between atoms: _10  and  _12
REMARK    6  A    between atoms: _12  and  _13
REMARK    7  A    between atoms: _12  and  _15
REMARK    8  A    between atoms: _15  and  _16
REMARK    9  A    between atoms: _18  and  _20
REMARK   10  A    between atoms: _20  and  _21
REMARK   11  A    between atoms: _24  and  _26
REMARK   12  A    between atoms: _26  and  _27
REMARK   13  A    between atoms: _26  and  _29
REMARK   14  A    between atoms: _29  and  _30
REMARK   15  A    between atoms: _33  and  _35
REMARK   16  A    between atoms: _35  and  _36
REMARK   17  A    between atoms: _35  and  _38
REMARK   18  A    between atoms: _38  and  _39
REMARK   19  A    between atoms: _44  and  _45
REMARK   20  A    between atoms: _47  and  _49
REMARK   21  A    between atoms: _49  and  _50
REMARK   22  A    between atoms: _53  and  _55
REMARK   23  A    between atoms: _55  and  _56
REMARK   24  A    between atoms: _55  and  _58
REMARK   25  A    between atoms: _58  and  _59
REMARK   26  A    between atoms: _64  and  _65
REMARK   27  A    between atoms: _67  and  _69
REMARK   28  A    between atoms: _69  and  _70
REMARK   29  A    between atoms: _69  and  _72
REMARK   30  A    between atoms: _72  and  _73
REMARK   31  A    between atoms: _73  and  _74
REMARK   32  A    between atoms: _77  and  _79
REMARK   33  A    between atoms: _79  and  _80
REMARK   34  A    between atoms: _79  and  _82
REMARK   35  A    between atoms: _82  and  _83
REMARK   36  A    between atoms: _89  and  _91
REMARK   37  A    between atoms: _91  and  _92
REMARK   38  A    between atoms: _91  and  _94
REMARK   39  A    between atoms: _94  and  _95
REMARK   40  A    between atoms: _98  and  _100
REMARK   41  A    between atoms: _100  and  _101
REMARK   42  A    between atoms: _100  and  _103
REMARK   43  A    between atoms: _103  and  _104
REMARK   44  A    between atoms: _109  and  _111
REMARK   45  A    between atoms: _111  and  _112
REMARK   46  A    between atoms: _111  and  _114
REMARK   47  A    between atoms: _114  and  _115
REMARK   48  A    between atoms: _115  and  _116
REMARK   49  A    between atoms: _121  and  _123
REMARK   50  A    between atoms: _123  and  _124
REMARK   51  A    between atoms: _123  and  _126
REMARK   52  A    between atoms: _126  and  _127
REMARK   53  A    between atoms: _129  and  _131
REMARK   54  A    between atoms: _131  and  _132
REMARK   55  A    between atoms: _131  and  _134
REMARK   56  A    between atoms: _134  and  _135
REMARK   57  A    between atoms: _141  and  _143
REMARK   58  A    between atoms: _143  and  _144
REMARK   59  A    between atoms: _143  and  _146
REMARK   60  A    between atoms: _146  and  _147
REMARK   61  A    between atoms: _150  and  _152
REMARK   62  A    between atoms: _152  and  _153
REMARK   63  A    between atoms: _152  and  _155
REMARK   64  A    between atoms: _155  and  _156
REMARK   65  A    between atoms: _159  and  _161
REMARK   66  A    between atoms: _161  and  _162
REMARK   67  A    between atoms: _161  and  _164
REMARK   68  A    between atoms: _164  and  _165
REMARK   69  A    between atoms: _168  and  _170
REMARK   70  A    between atoms: _170  and  _171
REMARK   71  A    between atoms: _174  and  _176
REMARK   72  A    between atoms: _176  and  _177
REMARK   73  A    between atoms: _179  and  _181
REMARK   74  A    between atoms: _181  and  _182
REMARK   75  A    between atoms: _181  and  _184
REMARK   76  A    between atoms: _184  and  _185
REMARK   77  A    between atoms: _185  and  _186
REMARK   78  A    between atoms: _188  and  _190
REMARK   79  A    between atoms: _190  and  _191
REMARK   80  A    between atoms: _190  and  _193
REMARK   81  A    between atoms: _193  and  _194
REMARK   82  A    between atoms: _197  and  _199
REMARK   83  A    between atoms: _199  and  _200
REMARK   84  A    between atoms: _199  and  _202
REMARK   85  A    between atoms: _202  and  _203
REMARK   86  A    between atoms: _203  and  _204
REMARK   87  A    between atoms: _206  and  _208
REMARK   88  A    between atoms: _208  and  _209
REMARK   89  A    between atoms: _208  and  _211
REMARK   90  A    between atoms: _211  and  _212
REMARK   91  A    between atoms: _215  and  _217
REMARK   92  A    between atoms: _217  and  _218
REMARK   93  A    between atoms: _217  and  _220
REMARK   94  A    between atoms: _220  and  _221
REMARK   95  A    between atoms: _221  and  _222
REMARK   96  A    between atoms: _222  and  _223
REMARK   97  A    between atoms: _232  and  _234
REMARK   98  A    between atoms: _234  and  _235
REMARK   99  A    between atoms: _234  and  _237
REMARK  100  A    between atoms: _237  and  _238
REMARK  101  A    between atoms: _244  and  _246
REMARK  102  A    between atoms: _246  and  _247
REMARK  103  A    between atoms: _246  and  _249
REMARK  104  A    between atoms: _249  and  _250
REMARK  105  A    between atoms: _250  and  _251
REMARK  106  A    between atoms: _254  and  _256
REMARK  107  A    between atoms: _256  and  _257
REMARK  108  A    between atoms: _259  and  _261
REMARK  109  A    between atoms: _261  and  _262
REMARK  110  A    between atoms: _261  and  _264
REMARK  111  A    between atoms: _264  and  _265
REMARK  112  A    between atoms: _268  and  _270
REMARK  113  A    between atoms: _270  and  _271
REMARK  114  A    between atoms: _274  and  _276
REMARK  115  A    between atoms: _276  and  _277
REMARK  116  A    between atoms: _276  and  _279
REMARK  117  A    between atoms: _279  and  _280
REMARK  118  A    between atoms: _280  and  _281
REMARK  119  A    between atoms: _284  and  _286
REMARK  120  A    between atoms: _286  and  _287
REMARK  121  A    between atoms: _286  and  _289
REMARK  122  A    between atoms: _289  and  _290
REMARK  123  A    between atoms: _295  and  _297
REMARK  124  A    between atoms: _297  and  _298
REMARK  125  A    between atoms: _300  and  _302
REMARK  126  A    between atoms: _302  and  _303
REMARK  127  A    between atoms: _302  and  _305
REMARK  128  A    between atoms: _305  and  _306
REMARK  129  A    between atoms: _309  and  _311
REMARK  130  A    between atoms: _311  and  _312
REMARK  131  A    between atoms: _311  and  _314
REMARK  132  A    between atoms: _314  and  _315
REMARK  133  A    between atoms: _318  and  _320
REMARK  134  A    between atoms: _320  and  _321
REMARK  135  A    between atoms: _320  and  _323
REMARK  136  A    between atoms: _323  and  _324
REMARK  137  A    between atoms: _329  and  _331
REMARK  138  A    between atoms: _331  and  _332
REMARK  139  A    between atoms: _331  and  _334
REMARK  140  A    between atoms: _334  and  _335
REMARK  141  A    between atoms: _335  and  _336
REMARK  142  A    between atoms: _341  and  _343
REMARK  143  A    between atoms: _343  and  _344
REMARK  144  A    between atoms: _343  and  _346
REMARK  145  A    between atoms: _346  and  _347
REMARK  146  A    between atoms: _347  and  _348
REMARK  147  A    between atoms: _348  and  _349
REMARK  148  A    between atoms: _358  and  _360
REMARK  149  A    between atoms: _360  and  _361
REMARK  150  A    between atoms: _360  and  _363
REMARK  151  A    between atoms: _363  and  _364
REMARK  152  A    between atoms: _369  and  _370
REMARK  153  A    between atoms: _372  and  _374
REMARK  154  A    between atoms: _374  and  _375
REMARK  155  A    between atoms: _374  and  _377
REMARK  156  A    between atoms: _377  and  _378
REMARK  157  A    between atoms: _381  and  _383
REMARK  158  A    between atoms: _383  and  _384
REMARK  159  A    between atoms: _383  and  _386
REMARK  160  A    between atoms: _386  and  _387
REMARK  161  A    between atoms: _389  and  _391
REMARK  162  A    between atoms: _391  and  _392
REMARK  163  A    between atoms: _391  and  _394
REMARK  164  A    between atoms: _394  and  _395
REMARK  165  A    between atoms: _400  and  _401
REMARK  166  A    between atoms: _403  and  _405
REMARK  167  A    between atoms: _405  and  _406
REMARK  168  A    between atoms: _405  and  _408
REMARK  169  A    between atoms: _408  and  _409
REMARK  170  A    between atoms: _412  and  _414
REMARK  171  A    between atoms: _414  and  _415
REMARK  172  A    between atoms: _414  and  _417
REMARK  173  A    between atoms: _417  and  _418
REMARK  174  A    between atoms: _424  and  _426
REMARK  175  A    between atoms: _426  and  _427
REMARK  176  A    between atoms: _429  and  _431
REMARK  177  A    between atoms: _431  and  _432
REMARK  178  A    between atoms: _431  and  _434
REMARK  179  A    between atoms: _434  and  _435
REMARK  180  A    between atoms: _438  and  _440
REMARK  181  A    between atoms: _440  and  _441
REMARK  182  A    between atoms: _440  and  _443
REMARK  183  A    between atoms: _446  and  _448
REMARK  184  A    between atoms: _448  and  _449
REMARK  185  A    between atoms: _452  and  _454
REMARK  186  A    between atoms: _454  and  _455
REMARK  187  A    between atoms: _454  and  _457
REMARK  188  A    between atoms: _457  and  _458
REMARK  189  A    between atoms: _463  and  _464
REMARK  190  A    between atoms: _466  and  _468
REMARK  191  A    between atoms: _468  and  _469
REMARK  192  A    between atoms: _468  and  _471
REMARK  193  A    between atoms: _471  and  _472
REMARK  194  A    between atoms: _477  and  _478
REMARK  195  A    between atoms: _480  and  _482
REMARK  196  A    between atoms: _482  and  _483
REMARK  197  A    between atoms: _485  and  _487
REMARK  198  A    between atoms: _487  and  _488
REMARK  199  A    between atoms: _487  and  _490
REMARK  200  A    between atoms: _490  and  _491
REMARK  201  A    between atoms: _491  and  _492
REMARK  202  A    between atoms: _492  and  _493
REMARK  203  A    between atoms: _493  and  _494
REMARK  204  A    between atoms: _498  and  _500
REMARK  205  A    between atoms: _500  and  _501
REMARK  206  A    between atoms: _503  and  _505
REMARK  207  A    between atoms: _505  and  _506
REMARK  208  A    between atoms: _505  and  _508
REMARK  209  A    between atoms: _508  and  _509
REMARK  210  A    between atoms: _512  and  _514
REMARK  211  A    between atoms: _514  and  _515
REMARK                            x       y       z     vdW  Elec       q    Type
REMARK                         _______ _______ _______ _____ _____    ______ ____
ROOT
ATOM      1  O   HOH     1       5.710   7.024  40.039  0.00  0.00    +0.000 OA
ENDROOT
TORSDOF 0
REMARK  Name = ../refined-set-2016/2y7i/2y7i_pocket.pdb
REMARK  211 active torsions:
REMARK  status: ('A' for Active; 'I' for Inactive)
REMARK    1  A    between atoms: _1  and  _3
REMARK    2  A    between atoms: _3  and  _4
REMARK    3  A    between atoms: _3  and  _6
REMARK    4  A    between atoms: _6  and  _7
REMARK    5  A    between atoms: _10  and  _12
REMARK    6  A    between atoms: _12  and  _13
REMARK    7  A    between atoms: _12  and  _15
REMARK    8  A    between atoms: _15  and  _16
REMARK    9  A    between atoms: _18  and  _20
REMARK   10  A    between atoms: _20  and  _21
REMARK   11  A    between atoms: _24  and  _26
REMARK   12  A    between atoms: _26  and  _27
REMARK   13  A    between atoms: _26  and  _29
REMARK   14  A    between atoms: _29  and  _30
REMARK   15  A    between atoms: _33  and  _35
REMARK   16  A    between atoms: _35  and  _36
REMARK   17  A    between atoms: _35  and  _38
REMARK   18  A    between atoms: _38  and  _39
REMARK   19  A    between atoms: _44  and  _45
REMARK   20  A    between atoms: _47  and  _49
REMARK   21  A    between atoms: _49  and  _50
REMARK   22  A    between atoms: _53  and  _55
REMARK   23  A    between atoms: _55  and  _56
REMARK   24  A    between atoms: _55  and  _58
REMARK   25  A    between atoms: _58  and  _59
REMARK   26  A    between atoms: _64  and  _65
REMARK   27  A    between atoms: _67  and  _69
REMARK   28  A    between atoms: _69  and  _70
REMARK   29  A    between atoms: _69  and  _72
REMARK   30  A    between atoms: _72  and  _73
REMARK   31  A    between atoms: _73  and  _74
REMARK   32  A    between atoms: _77  and  _79
REMARK   33  A    between atoms: _79  and  _80
REMARK   34  A    between atoms: _79  and  _82
REMARK   35  A    between atoms: _82  and  _83
REMARK   36  A    between atoms: _89  and  _91
REMARK   37  A    between atoms: _91  and  _92
REMARK   38  A    between atoms: _91  and  _94
REMARK   39  A    between atoms: _94  and  _95
REMARK   40  A    between atoms: _98  and  _100
REMARK   41  A    between atoms: _100  and  _101
REMARK   42  A    between atoms: _100  and  _103
REMARK   43  A    between atoms: _103  and  _104
REMARK   44  A    between atoms: _109  and  _111
REMARK   45  A    between atoms: _111  and  _112
REMARK   46  A    between atoms: _111  and  _114
REMARK   47  A    between atoms: _114  and  _115
REMARK   48  A    between atoms: _115  and  _116
REMARK   49  A    between atoms: _121  and  _123
REMARK   50  A    between atoms: _123  and  _124
REMARK   51  A    between atoms: _123  and  _126
REMARK   52  A    between atoms: _126  and  _127
REMARK   53  A    between atoms: _129  and  _131
REMARK   54  A    between atoms: _131  and  _132
REMARK   55  A    between atoms: _131  and  _134
REMARK   56  A    between atoms: _134  and  _135
REMARK   57  A    between atoms: _141  and  _143
REMARK   58  A    between atoms: _143  and  _144
REMARK   59  A    between atoms: _143  and  _146
REMARK   60  A    between atoms: _146  and  _147
REMARK   61  A    between atoms: _150  and  _152
REMARK   62  A    between atoms: _152  and  _153
REMARK   63  A    between atoms: _152  and  _155
REMARK   64  A    between atoms: _155  and  _156
REMARK   65  A    between atoms: _159  and  _161
REMARK   66  A    between atoms: _161  and  _162
REMARK   67  A    between atoms: _161  and  _164
REMARK   68  A    between atoms: _164  and  _165
REMARK   69  A    between atoms: _168  and  _170
REMARK   70  A    between atoms: _170  and  _171
REMARK   71  A    between atoms: _174  and  _176
REMARK   72  A    between atoms: _176  and  _177
REMARK   73  A    between atoms: _179  and  _181
REMARK   74  A    between atoms: _181  and  _182
REMARK   75  A    between atoms: _181  and  _184
REMARK   76  A    between atoms: _184  and  _185
REMARK   77  A    between atoms: _185  and  _186
REMARK   78  A    between atoms: _188  and  _190
REMARK   79  A    between atoms: _190  and  _191
REMARK   80  A    between atoms: _190  and  _193
REMARK   81  A    between atoms: _193  and  _194
REMARK   82  A    between atoms: _197  and  _199
REMARK   83  A    between atoms: _199  and  _200
REMARK   84  A    between atoms: _199  and  _202
REMARK   85  A    between atoms: _202  and  _203
REMARK   86  A    between atoms: _203  and  _204
REMARK   87  A    between atoms: _206  and  _208
REMARK   88  A    between atoms: _208  and  _209
REMARK   89  A    between atoms: _208  and  _211
REMARK   90  A    between atoms: _211  and  _212
REMARK   91  A    between atoms: _215  and  _217
REMARK   92  A    between atoms: _217  and  _218
REMARK   93  A    between atoms: _217  and  _220
REMARK   94  A    between atoms: _220  and  _221
REMARK   95  A    between atoms: _221  and  _222
REMARK   96  A    between atoms: _222  and  _223
REMARK   97  A    between atoms: _232  and  _234
REMARK   98  A    between atoms: _234  and  _235
REMARK   99  A    between atoms: _234  and  _237
REMARK  100  A    between atoms: _237  and  _238
REMARK  101  A    between atoms: _244  and  _246
REMARK  102  A    between atoms: _246  and  _247
REMARK  103  A    between atoms: _246  and  _249
REMARK  104  A    between atoms: _249  and  _250
REMARK  105  A    between atoms: _250  and  _251
REMARK  106  A    between atoms: _254  and  _256
REMARK  107  A    between atoms: _256  and  _257
REMARK  108  A    between atoms: _259  and  _261
REMARK  109  A    between atoms: _261  and  _262
REMARK  110  A    between atoms: _261  and  _264
REMARK  111  A    between atoms: _264  and  _265
REMARK  112  A    between atoms: _268  and  _270
REMARK  113  A    between atoms: _270  and  _271
REMARK  114  A    between atoms: _274  and  _276
REMARK  115  A    between atoms: _276  and  _277
REMARK  116  A    between atoms: _276  and  _279
REMARK  117  A    between atoms: _279  and  _280
REMARK  118  A    between atoms: _280  and  _281
REMARK  119  A    between atoms: _284  and  _286
REMARK  120  A    between atoms: _286  and  _287
REMARK  121  A    between atoms: _286  and  _289
REMARK  122  A    between atoms: _289  and  _290
REMARK  123  A    between atoms: _295  and  _297
REMARK  124  A    between atoms: _297  and  _298
REMARK  125  A    between atoms: _300  and  _302
REMARK  126  A    between atoms: _302  and  _303
REMARK  127  A    between atoms: _302  and  _305
REMARK  128  A    between atoms: _305  and  _306
REMARK  129  A    between atoms: _309  and  _311
REMARK  130  A    between atoms: _311  and  _312
REMARK  131  A    between atoms: _311  and  _314
REMARK  132  A    between atoms: _314  and  _315
REMARK  133  A    between atoms: _318  and  _320
REMARK  134  A    between atoms: _320  and  _321
REMARK  135  A    between atoms: _320  and  _323
REMARK  136  A    between atoms: _323  and  _324
REMARK  137  A    between atoms: _329  and  _331
REMARK  138  A    between atoms: _331  and  _332
REMARK  139  A    between atoms: _331  and  _334
REMARK  140  A    between atoms: _334  and  _335
REMARK  141  A    between atoms: _335  and  _336
REMARK  142  A    between atoms: _341  and  _343
REMARK  143  A    between atoms: _343  and  _344
REMARK  144  A    between atoms: _343  and  _346
REMARK  145  A    between atoms: _346  and  _347
REMARK  146  A    between atoms: _347  and  _348
REMARK  147  A    between atoms: _348  and  _349
REMARK  148  A    between atoms: _358  and  _360
REMARK  149  A    between atoms: _360  and  _361
REMARK  150  A    between atoms: _360  and  _363
REMARK  151  A    between atoms: _363  and  _364
REMARK  152  A    between atoms: _369  and  _370
REMARK  153  A    between atoms: _372  and  _374
REMARK  154  A    between atoms: _374  and  _375
REMARK  155  A    between atoms: _374  and  _377
REMARK  156  A    between atoms: _377  and  _378
REMARK  157  A    between atoms: _381  and  _383
REMARK  158  A    between atoms: _383  and  _384
REMARK  159  A    between atoms: _383  and  _386
REMARK  160  A    between atoms: _386  and  _387
REMARK  161  A    between atoms: _389  and  _391
REMARK  162  A    between atoms: _391  and  _392
REMARK  163  A    between atoms: _391  and  _394
REMARK  164  A    between atoms: _394  and  _395
REMARK  165  A    between atoms: _400  and  _401
REMARK  166  A    between atoms: _403  and  _405
REMARK  167  A    between atoms: _405  and  _406
REMARK  168  A    between atoms: _405  and  _408
REMARK  169  A    between atoms: _408  and  _409
REMARK  170  A    between atoms: _412  and  _414
REMARK  171  A    between atoms: _414  and  _415
REMARK  172  A    between atoms: _414  and  _417
REMARK  173  A    between atoms: _417  and  _418
REMARK  174  A    between atoms: _424  and  _426
REMARK  175  A    between atoms: _426  and  _427
REMARK  176  A    between atoms: _429  and  _431
REMARK  177  A    between atoms: _431  and  _432
REMARK  178  A    between atoms: _431  and  _434
REMARK  179  A    between atoms: _434  and  _435
REMARK  180  A    between atoms: _438  and  _440
REMARK  181  A    between atoms: _440  and  _441
REMARK  182  A    between atoms: _440  and  _443
REMARK  183  A    between atoms: _446  and  _448
REMARK  184  A    between atoms: _448  and  _449
REMARK  185  A    between atoms: _452  and  _454
REMARK  186  A    between atoms: _454  and  _455
REMARK  187  A    between atoms: _454  and  _457
REMARK  188  A    between atoms: _457  and  _458
REMARK  189  A    between atoms: _463  and  _464
REMARK  190  A    between atoms: _466  and  _468
REMARK  191  A    between atoms: _468  and  _469
REMARK  192  A    between atoms: _468  and  _471
REMARK  193  A    between atoms: _471  and  _472
REMARK  194  A    between atoms: _477  and  _478
REMARK  195  A    between atoms: _480  and  _482
REMARK  196  A    between atoms: _482  and  _483
REMARK  197  A    between atoms: _485  and  _487
REMARK  198  A    between atoms: _487  and  _488
REMARK  199  A    between atoms: _487  and  _490
REMARK  200  A    between atoms: _490  and  _491
REMARK  201  A    between atoms: _491  and  _492
REMARK  202  A    between atoms: _492  and  _493
REMARK  203  A    between atoms: _493  and  _494
REMARK  204  A    between atoms: _498  and  _500
REMARK  205  A    between atoms: _500  and  _501
REMARK  206  A    between atoms: _503  and  _505
REMARK  207  A    between atoms: _505  and  _506
REMARK  208  A    between atoms: _505  and  _508
REMARK  209  A    between atoms: _508  and  _509
REMARK  210  A    between atoms: _512  and  _514
REMARK  211  A    between atoms: _514  and  _515
REMARK                            x       y       z     vdW  Elec       q    Type
REMARK                         _______ _______ _______ _____ _____    ______ ____
ROOT
ATOM      1  O   HOH     1       1.593   4.852  38.798  0.00  0.00    +0.000 OA
ENDROOT
TORSDOF 0
REMARK  Name = ../refined-set-2016/2y7i/2y7i_pocket.pdb
REMARK  211 active torsions:
REMARK  status: ('A' for Active; 'I' for Inactive)
REMARK    1  A    between atoms: _1  and  _3
REMARK    2  A    between atoms: _3  and  _4
REMARK    3  A    between atoms: _3  and  _6
REMARK    4  A    between atoms: _6  and  _7
REMARK    5  A    between atoms: _10  and  _12
REMARK    6  A    between atoms: _12  and  _13
REMARK    7  A    between atoms: _12  and  _15
REMARK    8  A    between atoms: _15  and  _16
REMARK    9  A    between atoms: _18  and  _20
REMARK   10  A    between atoms: _20  and  _21
REMARK   11  A    between atoms: _24  and  _26
REMARK   12  A    between atoms: _26  and  _27
REMARK   13  A    between atoms: _26  and  _29
REMARK   14  A    between atoms: _29  and  _30
REMARK   15  A    between atoms: _33  and  _35
REMARK   16  A    between atoms: _35  and  _36
REMARK   17  A    between atoms: _35  and  _38
REMARK   18  A    between atoms: _38  and  _39
REMARK   19  A    between atoms: _44  and  _45
REMARK   20  A    between atoms: _47  and  _49
REMARK   21  A    between atoms: _49  and  _50
REMARK   22  A    between atoms: _53  and  _55
REMARK   23  A    between atoms: _55  and  _56
REMARK   24  A    between atoms: _55  and  _58
REMARK   25  A    between atoms: _58  and  _59
REMARK   26  A    between atoms: _64  and  _65
REMARK   27  A    between atoms: _67  and  _69
REMARK   28  A    between atoms: _69  and  _70
REMARK   29  A    between atoms: _69  and  _72
REMARK   30  A    between atoms: _72  and  _73
REMARK   31  A    between atoms: _73  and  _74
REMARK   32  A    between atoms: _77  and  _79
REMARK   33  A    between atoms: _79  and  _80
REMARK   34  A    between atoms: _79  and  _82
REMARK   35  A    between atoms: _82  and  _83
REMARK   36  A    between atoms: _89  and  _91
REMARK   37  A    between atoms: _91  and  _92
REMARK   38  A    between atoms: _91  and  _94
REMARK   39  A    between atoms: _94  and  _95
REMARK   40  A    between atoms: _98  and  _100
REMARK   41  A    between atoms: _100  and  _101
REMARK   42  A    between atoms: _100  and  _103
REMARK   43  A    between atoms: _103  and  _104
REMARK   44  A    between atoms: _109  and  _111
REMARK   45  A    between atoms: _111  and  _112
REMARK   46  A    between atoms: _111  and  _114
REMARK   47  A    between atoms: _114  and  _115
REMARK   48  A    between atoms: _115  and  _116
REMARK   49  A    between atoms: _121  and  _123
REMARK   50  A    between atoms: _123  and  _124
REMARK   51  A    between atoms: _123  and  _126
REMARK   52  A    between atoms: _126  and  _127
REMARK   53  A    between atoms: _129  and  _131
REMARK   54  A    between atoms: _131  and  _132
REMARK   55  A    between atoms: _131  and  _134
REMARK   56  A    between atoms: _134  and  _135
REMARK   57  A    between atoms: _141  and  _143
REMARK   58  A    between atoms: _143  and  _144
REMARK   59  A    between atoms: _143  and  _146
REMARK   60  A    between atoms: _146  and  _147
REMARK   61  A    between atoms: _150  and  _152
REMARK   62  A    between atoms: _152  and  _153
REMARK   63  A    between atoms: _152  and  _155
REMARK   64  A    between atoms: _155  and  _156
REMARK   65  A    between atoms: _159  and  _161
REMARK   66  A    between atoms: _161  and  _162
REMARK   67  A    between atoms: _161  and  _164
REMARK   68  A    between atoms: _164  and  _165
REMARK   69  A    between atoms: _168  and  _170
REMARK   70  A    between atoms: _170  and  _171
REMARK   71  A    between atoms: _174  and  _176
REMARK   72  A    between atoms: _176  and  _177
REMARK   73  A    between atoms: _179  and  _181
REMARK   74  A    between atoms: _181  and  _182
REMARK   75  A    between atoms: _181  and  _184
REMARK   76  A    between atoms: _184  and  _185
REMARK   77  A    between atoms: _185  and  _186
REMARK   78  A    between atoms: _188  and  _190
REMARK   79  A    between atoms: _190  and  _191
REMARK   80  A    between atoms: _190  and  _193
REMARK   81  A    between atoms: _193  and  _194
REMARK   82  A    between atoms: _197  and  _199
REMARK   83  A    between atoms: _199  and  _200
REMARK   84  A    between atoms: _199  and  _202
REMARK   85  A    between atoms: _202  and  _203
REMARK   86  A    between atoms: _203  and  _204
REMARK   87  A    between atoms: _206  and  _208
REMARK   88  A    between atoms: _208  and  _209
REMARK   89  A    between atoms: _208  and  _211
REMARK   90  A    between atoms: _211  and  _212
REMARK   91  A    between atoms: _215  and  _217
REMARK   92  A    between atoms: _217  and  _218
REMARK   93  A    between atoms: _217  and  _220
REMARK   94  A    between atoms: _220  and  _221
REMARK   95  A    between atoms: _221  and  _222
REMARK   96  A    between atoms: _222  and  _223
REMARK   97  A    between atoms: _232  and  _234
REMARK   98  A    between atoms: _234  and  _235
REMARK   99  A    between atoms: _234  and  _237
REMARK  100  A    between atoms: _237  and  _238
REMARK  101  A    between atoms: _244  and  _246
REMARK  102  A    between atoms: _246  and  _247
REMARK  103  A    between atoms: _246  and  _249
REMARK  104  A    between atoms: _249  and  _250
REMARK  105  A    between atoms: _250  and  _251
REMARK  106  A    between atoms: _254  and  _256
REMARK  107  A    between atoms: _256  and  _257
REMARK  108  A    between atoms: _259  and  _261
REMARK  109  A    between atoms: _261  and  _262
REMARK  110  A    between atoms: _261  and  _264
REMARK  111  A    between atoms: _264  and  _265
REMARK  112  A    between atoms: _268  and  _270
REMARK  113  A    between atoms: _270  and  _271
REMARK  114  A    between atoms: _274  and  _276
REMARK  115  A    between atoms: _276  and  _277
REMARK  116  A    between atoms: _276  and  _279
REMARK  117  A    between atoms: _279  and  _280
REMARK  118  A    between atoms: _280  and  _281
REMARK  119  A    between atoms: _284  and  _286
REMARK  120  A    between atoms: _286  and  _287
REMARK  121  A    between atoms: _286  and  _289
REMARK  122  A    between atoms: _289  and  _290
REMARK  123  A    between atoms: _295  and  _297
REMARK  124  A    between atoms: _297  and  _298
REMARK  125  A    between atoms: _300  and  _302
REMARK  126  A    between atoms: _302  and  _303
REMARK  127  A    between atoms: _302  and  _305
REMARK  128  A    between atoms: _305  and  _306
REMARK  129  A    between atoms: _309  and  _311
REMARK  130  A    between atoms: _311  and  _312
REMARK  131  A    between atoms: _311  and  _314
REMARK  132  A    between atoms: _314  and  _315
REMARK  133  A    between atoms: _318  and  _320
REMARK  134  A    between atoms: _320  and  _321
REMARK  135  A    between atoms: _320  and  _323
REMARK  136  A    between atoms: _323  and  _324
REMARK  137  A    between atoms: _329  and  _331
REMARK  138  A    between atoms: _331  and  _332
REMARK  139  A    between atoms: _331  and  _334
REMARK  140  A    between atoms: _334  and  _335
REMARK  141  A    between atoms: _335  and  _336
REMARK  142  A    between atoms: _341  and  _343
REMARK  143  A    between atoms: _343  and  _344
REMARK  144  A    between atoms: _343  and  _346
REMARK  145  A    between atoms: _346  and  _347
REMARK  146  A    between atoms: _347  and  _348
REMARK  147  A    between atoms: _348  and  _349
REMARK  148  A    between atoms: _358  and  _360
REMARK  149  A    between atoms: _360  and  _361
REMARK  150  A    between atoms: _360  and  _363
REMARK  151  A    between atoms: _363  and  _364
REMARK  152  A    between atoms: _369  and  _370
REMARK  153  A    between atoms: _372  and  _374
REMARK  154  A    between atoms: _374  and  _375
REMARK  155  A    between atoms: _374  and  _377
REMARK  156  A    between atoms: _377  and  _378
REMARK  157  A    between atoms: _381  and  _383
REMARK  158  A    between atoms: _383  and  _384
REMARK  159  A    between atoms: _383  and  _386
REMARK  160  A    between atoms: _386  and  _387
REMARK  161  A    between atoms: _389  and  _391
REMARK  162  A    between atoms: _391  and  _392
REMARK  163  A    between atoms: _391  and  _394
REMARK  164  A    between atoms: _394  and  _395
REMARK  165  A    between atoms: _400  and  _401
REMARK  166  A    between atoms: _403  and  _405
REMARK  167  A    between atoms: _405  and  _406
REMARK  168  A    between atoms: _405  and  _408
REMARK  169  A    between atoms: _408  and  _409
REMARK  170  A    between atoms: _412  and  _414
REMARK  171  A    between atoms: _414  and  _415
REMARK  172  A    between atoms: _414  and  _417
REMARK  173  A    between atoms: _417  and  _418
REMARK  174  A    between atoms: _424  and  _426
REMARK  175  A    between atoms: _426  and  _427
REMARK  176  A    between atoms: _429  and  _431
REMARK  177  A    between atoms: _431  and  _432
REMARK  178  A    between atoms: _431  and  _434
REMARK  179  A    between atoms: _434  and  _435
REMARK  180  A    between atoms: _438  and  _440
REMARK  181  A    between atoms: _440  and  _441
REMARK  182  A    between atoms: _440  and  _443
REMARK  183  A    between atoms: _446  and  _448
REMARK  184  A    between atoms: _448  and  _449
REMARK  185  A    between atoms: _452  and  _454
REMARK  186  A    between atoms: _454  and  _455
REMARK  187  A    between atoms: _454  and  _457
REMARK  188  A    between atoms: _457  and  _458
REMARK  189  A    between atoms: _463  and  _464
REMARK  190  A    between atoms: _466  and  _468
REMARK  191  A    between atoms: _468  and  _469
REMARK  192  A    between atoms: _468  and  _471
REMARK  193  A    between atoms: _471  and  _472
REMARK  194  A    between atoms: _477  and  _478
REMARK  195  A    between atoms: _480  and  _482
REMARK  196  A    between atoms: _482  and  _483
REMARK  197  A    between atoms: _485  and  _487
REMARK  198  A    between atoms: _487  and  _488
REMARK  199  A    between atoms: _487  and  _490
REMARK  200  A    between atoms: _490  and  _491
REMARK  201  A    between atoms: _491  and  _492
REMARK  202  A    between atoms: _492  and  _493
REMARK  203  A    between atoms: _493  and  _494
REMARK  204  A    between atoms: _498  and  _500
REMARK  205  A    between atoms: _500  and  _501
REMARK  206  A    between atoms: _503  and  _505
REMARK  207  A    between atoms: _505  and  _506
REMARK  208  A    between atoms: _505  and  _508
REMARK  209  A    between atoms: _508  and  _509
REMARK  210  A    between atoms: _512  and  _514
REMARK  211  A    between atoms: _514  and  _515
REMARK                            x       y       z     vdW  Elec       q    Type
REMARK                         _______ _______ _______ _____ _____    ______ ____
ROOT
ATOM      1  O   HOH     1       1.716   6.275  35.649  0.00  0.00    +0.000 OA
ENDROOT
TORSDOF 0
REMARK  Name = ../refined-set-2016/2y7i/2y7i_pocket.pdb
REMARK  211 active torsions:
REMARK  status: ('A' for Active; 'I' for Inactive)
REMARK    1  A    between atoms: _1  and  _3
REMARK    2  A    between atoms: _3  and  _4
REMARK    3  A    between atoms: _3  and  _6
REMARK    4  A    between atoms: _6  and  _7
REMARK    5  A    between atoms: _10  and  _12
REMARK    6  A    between atoms: _12  and  _13
REMARK    7  A    between atoms: _12  and  _15
REMARK    8  A    between atoms: _15  and  _16
REMARK    9  A    between atoms: _18  and  _20
REMARK   10  A    between atoms: _20  and  _21
REMARK   11  A    between atoms: _24  and  _26
REMARK   12  A    between atoms: _26  and  _27
REMARK   13  A    between atoms: _26  and  _29
REMARK   14  A    between atoms: _29  and  _30
REMARK   15  A    between atoms: _33  and  _35
REMARK   16  A    between atoms: _35  and  _36
REMARK   17  A    between atoms: _35  and  _38
REMARK   18  A    between atoms: _38  and  _39
REMARK   19  A    between atoms: _44  and  _45
REMARK   20  A    between atoms: _47  and  _49
REMARK   21  A    between atoms: _49  and  _50
REMARK   22  A    between atoms: _53  and  _55
REMARK   23  A    between atoms: _55  and  _56
REMARK   24  A    between atoms: _55  and  _58
REMARK   25  A    between atoms: _58  and  _59
REMARK   26  A    between atoms: _64  and  _65
REMARK   27  A    between atoms: _67  and  _69
REMARK   28  A    between atoms: _69  and  _70
REMARK   29  A    between atoms: _69  and  _72
REMARK   30  A    between atoms: _72  and  _73
REMARK   31  A    between atoms: _73  and  _74
REMARK   32  A    between atoms: _77  and  _79
REMARK   33  A    between atoms: _79  and  _80
REMARK   34  A    between atoms: _79  and  _82
REMARK   35  A    between atoms: _82  and  _83
REMARK   36  A    between atoms: _89  and  _91
REMARK   37  A    between atoms: _91  and  _92
REMARK   38  A    between atoms: _91  and  _94
REMARK   39  A    between atoms: _94  and  _95
REMARK   40  A    between atoms: _98  and  _100
REMARK   41  A    between atoms: _100  and  _101
REMARK   42  A    between atoms: _100  and  _103
REMARK   43  A    between atoms: _103  and  _104
REMARK   44  A    between atoms: _109  and  _111
REMARK   45  A    between atoms: _111  and  _112
REMARK   46  A    between atoms: _111  and  _114
REMARK   47  A    between atoms: _114  and  _115
REMARK   48  A    between atoms: _115  and  _116
REMARK   49  A    between atoms: _121  and  _123
REMARK   50  A    between atoms: _123  and  _124
REMARK   51  A    between atoms: _123  and  _126
REMARK   52  A    between atoms: _126  and  _127
REMARK   53  A    between atoms: _129  and  _131
REMARK   54  A    between atoms: _131  and  _132
REMARK   55  A    between atoms: _131  and  _134
REMARK   56  A    between atoms: _134  and  _135
REMARK   57  A    between atoms: _141  and  _143
REMARK   58  A    between atoms: _143  and  _144
REMARK   59  A    between atoms: _143  and  _146
REMARK   60  A    between atoms: _146  and  _147
REMARK   61  A    between atoms: _150  and  _152
REMARK   62  A    between atoms: _152  and  _153
REMARK   63  A    between atoms: _152  and  _155
REMARK   64  A    between atoms: _155  and  _156
REMARK   65  A    between atoms: _159  and  _161
REMARK   66  A    between atoms: _161  and  _162
REMARK   67  A    between atoms: _161  and  _164
REMARK   68  A    between atoms: _164  and  _165
REMARK   69  A    between atoms: _168  and  _170
REMARK   70  A    between atoms: _170  and  _171
REMARK   71  A    between atoms: _174  and  _176
REMARK   72  A    between atoms: _176  and  _177
REMARK   73  A    between atoms: _179  and  _181
REMARK   74  A    between atoms: _181  and  _182
REMARK   75  A    between atoms: _181  and  _184
REMARK   76  A    between atoms: _184  and  _185
REMARK   77  A    between atoms: _185  and  _186
REMARK   78  A    between atoms: _188  and  _190
REMARK   79  A    between atoms: _190  and  _191
REMARK   80  A    between atoms: _190  and  _193
REMARK   81  A    between atoms: _193  and  _194
REMARK   82  A    between atoms: _197  and  _199
REMARK   83  A    between atoms: _199  and  _200
REMARK   84  A    between atoms: _199  and  _202
REMARK   85  A    between atoms: _202  and  _203
REMARK   86  A    between atoms: _203  and  _204
REMARK   87  A    between atoms: _206  and  _208
REMARK   88  A    between atoms: _208  and  _209
REMARK   89  A    between atoms: _208  and  _211
REMARK   90  A    between atoms: _211  and  _212
REMARK   91  A    between atoms: _215  and  _217
REMARK   92  A    between atoms: _217  and  _218
REMARK   93  A    between atoms: _217  and  _220
REMARK   94  A    between atoms: _220  and  _221
REMARK   95  A    between atoms: _221  and  _222
REMARK   96  A    between atoms: _222  and  _223
REMARK   97  A    between atoms: _232  and  _234
REMARK   98  A    between atoms: _234  and  _235
REMARK   99  A    between atoms: _234  and  _237
REMARK  100  A    between atoms: _237  and  _238
REMARK  101  A    between atoms: _244  and  _246
REMARK  102  A    between atoms: _246  and  _247
REMARK  103  A    between atoms: _246  and  _249
REMARK  104  A    between atoms: _249  and  _250
REMARK  105  A    between atoms: _250  and  _251
REMARK  106  A    between atoms: _254  and  _256
REMARK  107  A    between atoms: _256  and  _257
REMARK  108  A    between atoms: _259  and  _261
REMARK  109  A    between atoms: _261  and  _262
REMARK  110  A    between atoms: _261  and  _264
REMARK  111  A    between atoms: _264  and  _265
REMARK  112  A    between atoms: _268  and  _270
REMARK  113  A    between atoms: _270  and  _271
REMARK  114  A    between atoms: _274  and  _276
REMARK  115  A    between atoms: _276  and  _277
REMARK  116  A    between atoms: _276  and  _279
REMARK  117  A    between atoms: _279  and  _280
REMARK  118  A    between atoms: _280  and  _281
REMARK  119  A    between atoms: _284  and  _286
REMARK  120  A    between atoms: _286  and  _287
REMARK  121  A    between atoms: _286  and  _289
REMARK  122  A    between atoms: _289  and  _290
REMARK  123  A    between atoms: _295  and  _297
REMARK  124  A    between atoms: _297  and  _298
REMARK  125  A    between atoms: _300  and  _302
REMARK  126  A    between atoms: _302  and  _303
REMARK  127  A    between atoms: _302  and  _305
REMARK  128  A    between atoms: _305  and  _306
REMARK  129  A    between atoms: _309  and  _311
REMARK  130  A    between atoms: _311  and  _312
REMARK  131  A    between atoms: _311  and  _314
REMARK  132  A    between atoms: _314  and  _315
REMARK  133  A    between atoms: _318  and  _320
REMARK  134  A    between atoms: _320  and  _321
REMARK  135  A    between atoms: _320  and  _323
REMARK  136  A    between atoms: _323  and  _324
REMARK  137  A    between atoms: _329  and  _331
REMARK  138  A    between atoms: _331  and  _332
REMARK  139  A    between atoms: _331  and  _334
REMARK  140  A    between atoms: _334  and  _335
REMARK  141  A    between atoms: _335  and  _336
REMARK  142  A    between atoms: _341  and  _343
REMARK  143  A    between atoms: _343  and  _344
REMARK  144  A    between atoms: _343  and  _346
REMARK  145  A    between atoms: _346  and  _347
REMARK  146  A    between atoms: _347  and  _348
REMARK  147  A    between atoms: _348  and  _349
REMARK  148  A    between atoms: _358  and  _360
REMARK  149  A    between atoms: _360  and  _361
REMARK  150  A    between atoms: _360  and  _363
REMARK  151  A    between atoms: _363  and  _364
REMARK  152  A    between atoms: _369  and  _370
REMARK  153  A    between atoms: _372  and  _374
REMARK  154  A    between atoms: _374  and  _375
REMARK  155  A    between atoms: _374  and  _377
REMARK  156  A    between atoms: _377  and  _378
REMARK  157  A    between atoms: _381  and  _383
REMARK  158  A    between atoms: _383  and  _384
REMARK  159  A    between atoms: _383  and  _386
REMARK  160  A    between atoms: _386  and  _387
REMARK  161  A    between atoms: _389  and  _391
REMARK  162  A    between atoms: _391  and  _392
REMARK  163  A    between atoms: _391  and  _394
REMARK  164  A    between atoms: _394  and  _395
REMARK  165  A    between atoms: _400  and  _401
REMARK  166  A    between atoms: _403  and  _405
REMARK  167  A    between atoms: _405  and  _406
REMARK  168  A    between atoms: _405  and  _408
REMARK  169  A    between atoms: _408  and  _409
REMARK  170  A    between atoms: _412  and  _414
REMARK  171  A    between atoms: _414  and  _415
REMARK  172  A    between atoms: _414  and  _417
REMARK  173  A    between atoms: _417  and  _418
REMARK  174  A    between atoms: _424  and  _426
REMARK  175  A    between atoms: _426  and  _427
REMARK  176  A    between atoms: _429  and  _431
REMARK  177  A    between atoms: _431  and  _432
REMARK  178  A    between atoms: _431  and  _434
REMARK  179  A    between atoms: _434  and  _435
REMARK  180  A    between atoms: _438  and  _440
REMARK  181  A    between atoms: _440  and  _441
REMARK  182  A    between atoms: _440  and  _443
REMARK  183  A    between atoms: _446  and  _448
REMARK  184  A    between atoms: _448  and  _449
REMARK  185  A    between atoms: _452  and  _454
REMARK  186  A    between atoms: _454  and  _455
REMARK  187  A    between atoms: _454  and  _457
REMARK  188  A    between atoms: _457  and  _458
REMARK  189  A    between atoms: _463  and  _464
REMARK  190  A    between atoms: _466  and  _468
REMARK  191  A    between atoms: _468  and  _469
REMARK  192  A    between atoms: _468  and  _471
REMARK  193  A    between atoms: _471  and  _472
REMARK  194  A    between atoms: _477  and  _478
REMARK  195  A    between atoms: _480  and  _482
REMARK  196  A    between atoms: _482  and  _483
REMARK  197  A    between atoms: _485  and  _487
REMARK  198  A    between atoms: _487  and  _488
REMARK  199  A    between atoms: _487  and  _490
REMARK  200  A    between atoms: _490  and  _491
REMARK  201  A    between atoms: _491  and  _492
REMARK  202  A    between atoms: _492  and  _493
REMARK  203  A    between atoms: _493  and  _494
REMARK  204  A    between atoms: _498  and  _500
REMARK  205  A    between atoms: _500  and  _501
REMARK  206  A    between atoms: _503  and  _505
REMARK  207  A    between atoms: _505  and  _506
REMARK  208  A    between atoms: _505  and  _508
REMARK  209  A    between atoms: _508  and  _509
REMARK  210  A    between atoms: _512  and  _514
REMARK  211  A    between atoms: _514  and  _515
REMARK                            x       y       z     vdW  Elec       q    Type
REMARK                         _______ _______ _______ _____ _____    ______ ____
ROOT
ATOM      1  O   HOH     1       1.190   6.857  32.741  0.00  0.00    +0.000 OA
ENDROOT
TORSDOF 0
REMARK  Name = ../refined-set-2016/2y7i/2y7i_pocket.pdb
REMARK  211 active torsions:
REMARK  status: ('A' for Active; 'I' for Inactive)
REMARK    1  A    between atoms: _1  and  _3
REMARK    2  A    between atoms: _3  and  _4
REMARK    3  A    between atoms: _3  and  _6
REMARK    4  A    between atoms: _6  and  _7
REMARK    5  A    between atoms: _10  and  _12
REMARK    6  A    between atoms: _12  and  _13
REMARK    7  A    between atoms: _12  and  _15
REMARK    8  A    between atoms: _15  and  _16
REMARK    9  A    between atoms: _18  and  _20
REMARK   10  A    between atoms: _20  and  _21
REMARK   11  A    between atoms: _24  and  _26
REMARK   12  A    between atoms: _26  and  _27
REMARK   13  A    between atoms: _26  and  _29
REMARK   14  A    between atoms: _29  and  _30
REMARK   15  A    between atoms: _33  and  _35
REMARK   16  A    between atoms: _35  and  _36
REMARK   17  A    between atoms: _35  and  _38
REMARK   18  A    between atoms: _38  and  _39
REMARK   19  A    between atoms: _44  and  _45
REMARK   20  A    between atoms: _47  and  _49
REMARK   21  A    between atoms: _49  and  _50
REMARK   22  A    between atoms: _53  and  _55
REMARK   23  A    between atoms: _55  and  _56
REMARK   24  A    between atoms: _55  and  _58
REMARK   25  A    between atoms: _58  and  _59
REMARK   26  A    between atoms: _64  and  _65
REMARK   27  A    between atoms: _67  and  _69
REMARK   28  A    between atoms: _69  and  _70
REMARK   29  A    between atoms: _69  and  _72
REMARK   30  A    between atoms: _72  and  _73
REMARK   31  A    between atoms: _73  and  _74
REMARK   32  A    between atoms: _77  and  _79
REMARK   33  A    between atoms: _79  and  _80
REMARK   34  A    between atoms: _79  and  _82
REMARK   35  A    between atoms: _82  and  _83
REMARK   36  A    between atoms: _89  and  _91
REMARK   37  A    between atoms: _91  and  _92
REMARK   38  A    between atoms: _91  and  _94
REMARK   39  A    between atoms: _94  and  _95
REMARK   40  A    between atoms: _98  and  _100
REMARK   41  A    between atoms: _100  and  _101
REMARK   42  A    between atoms: _100  and  _103
REMARK   43  A    between atoms: _103  and  _104
REMARK   44  A    between atoms: _109  and  _111
REMARK   45  A    between atoms: _111  and  _112
REMARK   46  A    between atoms: _111  and  _114
REMARK   47  A    between atoms: _114  and  _115
REMARK   48  A    between atoms: _115  and  _116
REMARK   49  A    between atoms: _121  and  _123
REMARK   50  A    between atoms: _123  and  _124
REMARK   51  A    between atoms: _123  and  _126
REMARK   52  A    between atoms: _126  and  _127
REMARK   53  A    between atoms: _129  and  _131
REMARK   54  A    between atoms: _131  and  _132
REMARK   55  A    between atoms: _131  and  _134
REMARK   56  A    between atoms: _134  and  _135
REMARK   57  A    between atoms: _141  and  _143
REMARK   58  A    between atoms: _143  and  _144
REMARK   59  A    between atoms: _143  and  _146
REMARK   60  A    between atoms: _146  and  _147
REMARK   61  A    between atoms: _150  and  _152
REMARK   62  A    between atoms: _152  and  _153
REMARK   63  A    between atoms: _152  and  _155
REMARK   64  A    between atoms: _155  and  _156
REMARK   65  A    between atoms: _159  and  _161
REMARK   66  A    between atoms: _161  and  _162
REMARK   67  A    between atoms: _161  and  _164
REMARK   68  A    between atoms: _164  and  _165
REMARK   69  A    between atoms: _168  and  _170
REMARK   70  A    between atoms: _170  and  _171
REMARK   71  A    between atoms: _174  and  _176
REMARK   72  A    between atoms: _176  and  _177
REMARK   73  A    between atoms: _179  and  _181
REMARK   74  A    between atoms: _181  and  _182
REMARK   75  A    between atoms: _181  and  _184
REMARK   76  A    between atoms: _184  and  _185
REMARK   77  A    between atoms: _185  and  _186
REMARK   78  A    between atoms: _188  and  _190
REMARK   79  A    between atoms: _190  and  _191
REMARK   80  A    between atoms: _190  and  _193
REMARK   81  A    between atoms: _193  and  _194
REMARK   82  A    between atoms: _197  and  _199
REMARK   83  A    between atoms: _199  and  _200
REMARK   84  A    between atoms: _199  and  _202
REMARK   85  A    between atoms: _202  and  _203
REMARK   86  A    between atoms: _203  and  _204
REMARK   87  A    between atoms: _206  and  _208
REMARK   88  A    between atoms: _208  and  _209
REMARK   89  A    between atoms: _208  and  _211
REMARK   90  A    between atoms: _211  and  _212
REMARK   91  A    between atoms: _215  and  _217
REMARK   92  A    between atoms: _217  and  _218
REMARK   93  A    between atoms: _217  and  _220
REMARK   94  A    between atoms: _220  and  _221
REMARK   95  A    between atoms: _221  and  _222
REMARK   96  A    between atoms: _222  and  _223
REMARK   97  A    between atoms: _232  and  _234
REMARK   98  A    between atoms: _234  and  _235
REMARK   99  A    between atoms: _234  and  _237
REMARK  100  A    between atoms: _237  and  _238
REMARK  101  A    between atoms: _244  and  _246
REMARK  102  A    between atoms: _246  and  _247
REMARK  103  A    between atoms: _246  and  _249
REMARK  104  A    between atoms: _249  and  _250
REMARK  105  A    between atoms: _250  and  _251
REMARK  106  A    between atoms: _254  and  _256
REMARK  107  A    between atoms: _256  and  _257
REMARK  108  A    between atoms: _259  and  _261
REMARK  109  A    between atoms: _261  and  _262
REMARK  110  A    between atoms: _261  and  _264
REMARK  111  A    between atoms: _264  and  _265
REMARK  112  A    between atoms: _268  and  _270
REMARK  113  A    between atoms: _270  and  _271
REMARK  114  A    between atoms: _274  and  _276
REMARK  115  A    between atoms: _276  and  _277
REMARK  116  A    between atoms: _276  and  _279
REMARK  117  A    between atoms: _279  and  _280
REMARK  118  A    between atoms: _280  and  _281
REMARK  119  A    between atoms: _284  and  _286
REMARK  120  A    between atoms: _286  and  _287
REMARK  121  A    between atoms: _286  and  _289
REMARK  122  A    between atoms: _289  and  _290
REMARK  123  A    between atoms: _295  and  _297
REMARK  124  A    between atoms: _297  and  _298
REMARK  125  A    between atoms: _300  and  _302
REMARK  126  A    between atoms: _302  and  _303
REMARK  127  A    between atoms: _302  and  _305
REMARK  128  A    between atoms: _305  and  _306
REMARK  129  A    between atoms: _309  and  _311
REMARK  130  A    between atoms: _311  and  _312
REMARK  131  A    between atoms: _311  and  _314
REMARK  132  A    between atoms: _314  and  _315
REMARK  133  A    between atoms: _318  and  _320
REMARK  134  A    between atoms: _320  and  _321
REMARK  135  A    between atoms: _320  and  _323
REMARK  136  A    between atoms: _323  and  _324
REMARK  137  A    between atoms: _329  and  _331
REMARK  138  A    between atoms: _331  and  _332
REMARK  139  A    between atoms: _331  and  _334
REMARK  140  A    between atoms: _334  and  _335
REMARK  141  A    between atoms: _335  and  _336
REMARK  142  A    between atoms: _341  and  _343
REMARK  143  A    between atoms: _343  and  _344
REMARK  144  A    between atoms: _343  and  _346
REMARK  145  A    between atoms: _346  and  _347
REMARK  146  A    between atoms: _347  and  _348
REMARK  147  A    between atoms: _348  and  _349
REMARK  148  A    between atoms: _358  and  _360
REMARK  149  A    between atoms: _360  and  _361
REMARK  150  A    between atoms: _360  and  _363
REMARK  151  A    between atoms: _363  and  _364
REMARK  152  A    between atoms: _369  and  _370
REMARK  153  A    between atoms: _372  and  _374
REMARK  154  A    between atoms: _374  and  _375
REMARK  155  A    between atoms: _374  and  _377
REMARK  156  A    between atoms: _377  and  _378
REMARK  157  A    between atoms: _381  and  _383
REMARK  158  A    between atoms: _383  and  _384
REMARK  159  A    between atoms: _383  and  _386
REMARK  160  A    between atoms: _386  and  _387
REMARK  161  A    between atoms: _389  and  _391
REMARK  162  A    between atoms: _391  and  _392
REMARK  163  A    between atoms: _391  and  _394
REMARK  164  A    between atoms: _394  and  _395
REMARK  165  A    between atoms: _400  and  _401
REMARK  166  A    between atoms: _403  and  _405
REMARK  167  A    between atoms: _405  and  _406
REMARK  168  A    between atoms: _405  and  _408
REMARK  169  A    between atoms: _408  and  _409
REMARK  170  A    between atoms: _412  and  _414
REMARK  171  A    between atoms: _414  and  _415
REMARK  172  A    between atoms: _414  and  _417
REMARK  173  A    between atoms: _417  and  _418
REMARK  174  A    between atoms: _424  and  _426
REMARK  175  A    between atoms: _426  and  _427
REMARK  176  A    between atoms: _429  and  _431
REMARK  177  A    between atoms: _431  and  _432
REMARK  178  A    between atoms: _431  and  _434
REMARK  179  A    between atoms: _434  and  _435
REMARK  180  A    between atoms: _438  and  _440
REMARK  181  A    between atoms: _440  and  _441
REMARK  182  A    between atoms: _440  and  _443
REMARK  183  A    between atoms: _446  and  _448
REMARK  184  A    between atoms: _448  and  _449
REMARK  185  A    between atoms: _452  and  _454
REMARK  186  A    between atoms: _454  and  _455
REMARK  187  A    between atoms: _454  and  _457
REMARK  188  A    between atoms: _457  and  _458
REMARK  189  A    between atoms: _463  and  _464
REMARK  190  A    between atoms: _466  and  _468
REMARK  191  A    between atoms: _468  and  _469
REMARK  192  A    between atoms: _468  and  _471
REMARK  193  A    between atoms: _471  and  _472
REMARK  194  A    between atoms: _477  and  _478
REMARK  195  A    between atoms: _480  and  _482
REMARK  196  A    between atoms: _482  and  _483
REMARK  197  A    between atoms: _485  and  _487
REMARK  198  A    between atoms: _487  and  _488
REMARK  199  A    between atoms: _487  and  _490
REMARK  200  A    between atoms: _490  and  _491
REMARK  201  A    between atoms: _491  and  _492
REMARK  202  A    between atoms: _492  and  _493
REMARK  203  A    between atoms: _493  and  _494
REMARK  204  A    between atoms: _498  and  _500
REMARK  205  A    between atoms: _500  and  _501
REMARK  206  A    between atoms: _503  and  _505
REMARK  207  A    between atoms: _505  and  _506
REMARK  208  A    between atoms: _505  and  _508
REMARK  209  A    between atoms: _508  and  _509
REMARK  210  A    between atoms: _512  and  _514
REMARK  211  A    between atoms: _514  and  _515
REMARK                            x       y       z     vdW  Elec       q    Type
REMARK                         _______ _______ _______ _____ _____    ______ ____
ROOT
ATOM      1  O   HOH     1       0.296  -8.118  39.571  0.00  0.00    +0.000 OA
ENDROOT
TORSDOF 0
REMARK  Name = ../refined-set-2016/2y7i/2y7i_pocket.pdb
REMARK  211 active torsions:
REMARK  status: ('A' for Active; 'I' for Inactive)
REMARK    1  A    between atoms: _1  and  _3
REMARK    2  A    between atoms: _3  and  _4
REMARK    3  A    between atoms: _3  and  _6
REMARK    4  A    between atoms: _6  and  _7
REMARK    5  A    between atoms: _10  and  _12
REMARK    6  A    between atoms: _12  and  _13
REMARK    7  A    between atoms: _12  and  _15
REMARK    8  A    between atoms: _15  and  _16
REMARK    9  A    between atoms: _18  and  _20
REMARK   10  A    between atoms: _20  and  _21
REMARK   11  A    between atoms: _24  and  _26
REMARK   12  A    between atoms: _26  and  _27
REMARK   13  A    between atoms: _26  and  _29
REMARK   14  A    between atoms: _29  and  _30
REMARK   15  A    between atoms: _33  and  _35
REMARK   16  A    between atoms: _35  and  _36
REMARK   17  A    between atoms: _35  and  _38
REMARK   18  A    between atoms: _38  and  _39
REMARK   19  A    between atoms: _44  and  _45
REMARK   20  A    between atoms: _47  and  _49
REMARK   21  A    between atoms: _49  and  _50
REMARK   22  A    between atoms: _53  and  _55
REMARK   23  A    between atoms: _55  and  _56
REMARK   24  A    between atoms: _55  and  _58
REMARK   25  A    between atoms: _58  and  _59
REMARK   26  A    between atoms: _64  and  _65
REMARK   27  A    between atoms: _67  and  _69
REMARK   28  A    between atoms: _69  and  _70
REMARK   29  A    between atoms: _69  and  _72
REMARK   30  A    between atoms: _72  and  _73
REMARK   31  A    between atoms: _73  and  _74
REMARK   32  A    between atoms: _77  and  _79
REMARK   33  A    between atoms: _79  and  _80
REMARK   34  A    between atoms: _79  and  _82
REMARK   35  A    between atoms: _82  and  _83
REMARK   36  A    between atoms: _89  and  _91
REMARK   37  A    between atoms: _91  and  _92
REMARK   38  A    between atoms: _91  and  _94
REMARK   39  A    between atoms: _94  and  _95
REMARK   40  A    between atoms: _98  and  _100
REMARK   41  A    between atoms: _100  and  _101
REMARK   42  A    between atoms: _100  and  _103
REMARK   43  A    between atoms: _103  and  _104
REMARK   44  A    between atoms: _109  and  _111
REMARK   45  A    between atoms: _111  and  _112
REMARK   46  A    between atoms: _111  and  _114
REMARK   47  A    between atoms: _114  and  _115
REMARK   48  A    between atoms: _115  and  _116
REMARK   49  A    between atoms: _121  and  _123
REMARK   50  A    between atoms: _123  and  _124
REMARK   51  A    between atoms: _123  and  _126
REMARK   52  A    between atoms: _126  and  _127
REMARK   53  A    between atoms: _129  and  _131
REMARK   54  A    between atoms: _131  and  _132
REMARK   55  A    between atoms: _131  and  _134
REMARK   56  A    between atoms: _134  and  _135
REMARK   57  A    between atoms: _141  and  _143
REMARK   58  A    between atoms: _143  and  _144
REMARK   59  A    between atoms: _143  and  _146
REMARK   60  A    between atoms: _146  and  _147
REMARK   61  A    between atoms: _150  and  _152
REMARK   62  A    between atoms: _152  and  _153
REMARK   63  A    between atoms: _152  and  _155
REMARK   64  A    between atoms: _155  and  _156
REMARK   65  A    between atoms: _159  and  _161
REMARK   66  A    between atoms: _161  and  _162
REMARK   67  A    between atoms: _161  and  _164
REMARK   68  A    between atoms: _164  and  _165
REMARK   69  A    between atoms: _168  and  _170
REMARK   70  A    between atoms: _170  and  _171
REMARK   71  A    between atoms: _174  and  _176
REMARK   72  A    between atoms: _176  and  _177
REMARK   73  A    between atoms: _179  and  _181
REMARK   74  A    between atoms: _181  and  _182
REMARK   75  A    between atoms: _181  and  _184
REMARK   76  A    between atoms: _184  and  _185
REMARK   77  A    between atoms: _185  and  _186
REMARK   78  A    between atoms: _188  and  _190
REMARK   79  A    between atoms: _190  and  _191
REMARK   80  A    between atoms: _190  and  _193
REMARK   81  A    between atoms: _193  and  _194
REMARK   82  A    between atoms: _197  and  _199
REMARK   83  A    between atoms: _199  and  _200
REMARK   84  A    between atoms: _199  and  _202
REMARK   85  A    between atoms: _202  and  _203
REMARK   86  A    between atoms: _203  and  _204
REMARK   87  A    between atoms: _206  and  _208
REMARK   88  A    between atoms: _208  and  _209
REMARK   89  A    between atoms: _208  and  _211
REMARK   90  A    between atoms: _211  and  _212
REMARK   91  A    between atoms: _215  and  _217
REMARK   92  A    between atoms: _217  and  _218
REMARK   93  A    between atoms: _217  and  _220
REMARK   94  A    between atoms: _220  and  _221
REMARK   95  A    between atoms: _221  and  _222
REMARK   96  A    between atoms: _222  and  _223
REMARK   97  A    between atoms: _232  and  _234
REMARK   98  A    between atoms: _234  and  _235
REMARK   99  A    between atoms: _234  and  _237
REMARK  100  A    between atoms: _237  and  _238
REMARK  101  A    between atoms: _244  and  _246
REMARK  102  A    between atoms: _246  and  _247
REMARK  103  A    between atoms: _246  and  _249
REMARK  104  A    between atoms: _249  and  _250
REMARK  105  A    between atoms: _250  and  _251
REMARK  106  A    between atoms: _254  and  _256
REMARK  107  A    between atoms: _256  and  _257
REMARK  108  A    between atoms: _259  and  _261
REMARK  109  A    between atoms: _261  and  _262
REMARK  110  A    between atoms: _261  and  _264
REMARK  111  A    between atoms: _264  and  _265
REMARK  112  A    between atoms: _268  and  _270
REMARK  113  A    between atoms: _270  and  _271
REMARK  114  A    between atoms: _274  and  _276
REMARK  115  A    between atoms: _276  and  _277
REMARK  116  A    between atoms: _276  and  _279
REMARK  117  A    between atoms: _279  and  _280
REMARK  118  A    between atoms: _280  and  _281
REMARK  119  A    between atoms: _284  and  _286
REMARK  120  A    between atoms: _286  and  _287
REMARK  121  A    between atoms: _286  and  _289
REMARK  122  A    between atoms: _289  and  _290
REMARK  123  A    between atoms: _295  and  _297
REMARK  124  A    between atoms: _297  and  _298
REMARK  125  A    between atoms: _300  and  _302
REMARK  126  A    between atoms: _302  and  _303
REMARK  127  A    between atoms: _302  and  _305
REMARK  128  A    between atoms: _305  and  _306
REMARK  129  A    between atoms: _309  and  _311
REMARK  130  A    between atoms: _311  and  _312
REMARK  131  A    between atoms: _311  and  _314
REMARK  132  A    between atoms: _314  and  _315
REMARK  133  A    between atoms: _318  and  _320
REMARK  134  A    between atoms: _320  and  _321
REMARK  135  A    between atoms: _320  and  _323
REMARK  136  A    between atoms: _323  and  _324
REMARK  137  A    between atoms: _329  and  _331
REMARK  138  A    between atoms: _331  and  _332
REMARK  139  A    between atoms: _331  and  _334
REMARK  140  A    between atoms: _334  and  _335
REMARK  141  A    between atoms: _335  and  _336
REMARK  142  A    between atoms: _341  and  _343
REMARK  143  A    between atoms: _343  and  _344
REMARK  144  A    between atoms: _343  and  _346
REMARK  145  A    between atoms: _346  and  _347
REMARK  146  A    between atoms: _347  and  _348
REMARK  147  A    between atoms: _348  and  _349
REMARK  148  A    between atoms: _358  and  _360
REMARK  149  A    between atoms: _360  and  _361
REMARK  150  A    between atoms: _360  and  _363
REMARK  151  A    between atoms: _363  and  _364
REMARK  152  A    between atoms: _369  and  _370
REMARK  153  A    between atoms: _372  and  _374
REMARK  154  A    between atoms: _374  and  _375
REMARK  155  A    between atoms: _374  and  _377
REMARK  156  A    between atoms: _377  and  _378
REMARK  157  A    between atoms: _381  and  _383
REMARK  158  A    between atoms: _383  and  _384
REMARK  159  A    between atoms: _383  and  _386
REMARK  160  A    between atoms: _386  and  _387
REMARK  161  A    between atoms: _389  and  _391
REMARK  162  A    between atoms: _391  and  _392
REMARK  163  A    between atoms: _391  and  _394
REMARK  164  A    between atoms: _394  and  _395
REMARK  165  A    between atoms: _400  and  _401
REMARK  166  A    between atoms: _403  and  _405
REMARK  167  A    between atoms: _405  and  _406
REMARK  168  A    between atoms: _405  and  _408
REMARK  169  A    between atoms: _408  and  _409
REMARK  170  A    between atoms: _412  and  _414
REMARK  171  A    between atoms: _414  and  _415
REMARK  172  A    between atoms: _414  and  _417
REMARK  173  A    between atoms: _417  and  _418
REMARK  174  A    between atoms: _424  and  _426
REMARK  175  A    between atoms: _426  and  _427
REMARK  176  A    between atoms: _429  and  _431
REMARK  177  A    between atoms: _431  and  _432
REMARK  178  A    between atoms: _431  and  _434
REMARK  179  A    between atoms: _434  and  _435
REMARK  180  A    between atoms: _438  and  _440
REMARK  181  A    between atoms: _440  and  _441
REMARK  182  A    between atoms: _440  and  _443
REMARK  183  A    between atoms: _446  and  _448
REMARK  184  A    between atoms: _448  and  _449
REMARK  185  A    between atoms: _452  and  _454
REMARK  186  A    between atoms: _454  and  _455
REMARK  187  A    between atoms: _454  and  _457
REMARK  188  A    between atoms: _457  and  _458
REMARK  189  A    between atoms: _463  and  _464
REMARK  190  A    between atoms: _466  and  _468
REMARK  191  A    between atoms: _468  and  _469
REMARK  192  A    between atoms: _468  and  _471
REMARK  193  A    between atoms: _471  and  _472
REMARK  194  A    between atoms: _477  and  _478
REMARK  195  A    between atoms: _480  and  _482
REMARK  196  A    between atoms: _482  and  _483
REMARK  197  A    between atoms: _485  and  _487
REMARK  198  A    between atoms: _487  and  _488
REMARK  199  A    between atoms: _487  and  _490
REMARK  200  A    between atoms: _490  and  _491
REMARK  201  A    between atoms: _491  and  _492
REMARK  202  A    between atoms: _492  and  _493
REMARK  203  A    between atoms: _493  and  _494
REMARK  204  A    between atoms: _498  and  _500
REMARK  205  A    between atoms: _500  and  _501
REMARK  206  A    between atoms: _503  and  _505
REMARK  207  A    between atoms: _505  and  _506
REMARK  208  A    between atoms: _505  and  _508
REMARK  209  A    between atoms: _508  and  _509
REMARK  210  A    between atoms: _512  and  _514
REMARK  211  A    between atoms: _514  and  _515
REMARK                            x       y       z     vdW  Elec       q    Type
REMARK                         _______ _______ _______ _____ _____    ______ ____
ROOT
ATOM      1  O   HOH     1       7.064  -3.229  41.444  0.00  0.00    +0.000 OA
ENDROOT
TORSDOF 0
REMARK  Name = ../refined-set-2016/2y7i/2y7i_pocket.pdb
REMARK  211 active torsions:
REMARK  status: ('A' for Active; 'I' for Inactive)
REMARK    1  A    between atoms: _1  and  _3
REMARK    2  A    between atoms: _3  and  _4
REMARK    3  A    between atoms: _3  and  _6
REMARK    4  A    between atoms: _6  and  _7
REMARK    5  A    between atoms: _10  and  _12
REMARK    6  A    between atoms: _12  and  _13
REMARK    7  A    between atoms: _12  and  _15
REMARK    8  A    between atoms: _15  and  _16
REMARK    9  A    between atoms: _18  and  _20
REMARK   10  A    between atoms: _20  and  _21
REMARK   11  A    between atoms: _24  and  _26
REMARK   12  A    between atoms: _26  and  _27
REMARK   13  A    between atoms: _26  and  _29
REMARK   14  A    between atoms: _29  and  _30
REMARK   15  A    between atoms: _33  and  _35
REMARK   16  A    between atoms: _35  and  _36
REMARK   17  A    between atoms: _35  and  _38
REMARK   18  A    between atoms: _38  and  _39
REMARK   19  A    between atoms: _44  and  _45
REMARK   20  A    between atoms: _47  and  _49
REMARK   21  A    between atoms: _49  and  _50
REMARK   22  A    between atoms: _53  and  _55
REMARK   23  A    between atoms: _55  and  _56
REMARK   24  A    between atoms: _55  and  _58
REMARK   25  A    between atoms: _58  and  _59
REMARK   26  A    between atoms: _64  and  _65
REMARK   27  A    between atoms: _67  and  _69
REMARK   28  A    between atoms: _69  and  _70
REMARK   29  A    between atoms: _69  and  _72
REMARK   30  A    between atoms: _72  and  _73
REMARK   31  A    between atoms: _73  and  _74
REMARK   32  A    between atoms: _77  and  _79
REMARK   33  A    between atoms: _79  and  _80
REMARK   34  A    between atoms: _79  and  _82
REMARK   35  A    between atoms: _82  and  _83
REMARK   36  A    between atoms: _89  and  _91
REMARK   37  A    between atoms: _91  and  _92
REMARK   38  A    between atoms: _91  and  _94
REMARK   39  A    between atoms: _94  and  _95
REMARK   40  A    between atoms: _98  and  _100
REMARK   41  A    between atoms: _100  and  _101
REMARK   42  A    between atoms: _100  and  _103
REMARK   43  A    between atoms: _103  and  _104
REMARK   44  A    between atoms: _109  and  _111
REMARK   45  A    between atoms: _111  and  _112
REMARK   46  A    between atoms: _111  and  _114
REMARK   47  A    between atoms: _114  and  _115
REMARK   48  A    between atoms: _115  and  _116
REMARK   49  A    between atoms: _121  and  _123
REMARK   50  A    between atoms: _123  and  _124
REMARK   51  A    between atoms: _123  and  _126
REMARK   52  A    between atoms: _126  and  _127
REMARK   53  A    between atoms: _129  and  _131
REMARK   54  A    between atoms: _131  and  _132
REMARK   55  A    between atoms: _131  and  _134
REMARK   56  A    between atoms: _134  and  _135
REMARK   57  A    between atoms: _141  and  _143
REMARK   58  A    between atoms: _143  and  _144
REMARK   59  A    between atoms: _143  and  _146
REMARK   60  A    between atoms: _146  and  _147
REMARK   61  A    between atoms: _150  and  _152
REMARK   62  A    between atoms: _152  and  _153
REMARK   63  A    between atoms: _152  and  _155
REMARK   64  A    between atoms: _155  and  _156
REMARK   65  A    between atoms: _159  and  _161
REMARK   66  A    between atoms: _161  and  _162
REMARK   67  A    between atoms: _161  and  _164
REMARK   68  A    between atoms: _164  and  _165
REMARK   69  A    between atoms: _168  and  _170
REMARK   70  A    between atoms: _170  and  _171
REMARK   71  A    between atoms: _174  and  _176
REMARK   72  A    between atoms: _176  and  _177
REMARK   73  A    between atoms: _179  and  _181
REMARK   74  A    between atoms: _181  and  _182
REMARK   75  A    between atoms: _181  and  _184
REMARK   76  A    between atoms: _184  and  _185
REMARK   77  A    between atoms: _185  and  _186
REMARK   78  A    between atoms: _188  and  _190
REMARK   79  A    between atoms: _190  and  _191
REMARK   80  A    between atoms: _190  and  _193
REMARK   81  A    between atoms: _193  and  _194
REMARK   82  A    between atoms: _197  and  _199
REMARK   83  A    between atoms: _199  and  _200
REMARK   84  A    between atoms: _199  and  _202
REMARK   85  A    between atoms: _202  and  _203
REMARK   86  A    between atoms: _203  and  _204
REMARK   87  A    between atoms: _206  and  _208
REMARK   88  A    between atoms: _208  and  _209
REMARK   89  A    between atoms: _208  and  _211
REMARK   90  A    between atoms: _211  and  _212
REMARK   91  A    between atoms: _215  and  _217
REMARK   92  A    between atoms: _217  and  _218
REMARK   93  A    between atoms: _217  and  _220
REMARK   94  A    between atoms: _220  and  _221
REMARK   95  A    between atoms: _221  and  _222
REMARK   96  A    between atoms: _222  and  _223
REMARK   97  A    between atoms: _232  and  _234
REMARK   98  A    between atoms: _234  and  _235
REMARK   99  A    between atoms: _234  and  _237
REMARK  100  A    between atoms: _237  and  _238
REMARK  101  A    between atoms: _244  and  _246
REMARK  102  A    between atoms: _246  and  _247
REMARK  103  A    between atoms: _246  and  _249
REMARK  104  A    between atoms: _249  and  _250
REMARK  105  A    between atoms: _250  and  _251
REMARK  106  A    between atoms: _254  and  _256
REMARK  107  A    between atoms: _256  and  _257
REMARK  108  A    between atoms: _259  and  _261
REMARK  109  A    between atoms: _261  and  _262
REMARK  110  A    between atoms: _261  and  _264
REMARK  111  A    between atoms: _264  and  _265
REMARK  112  A    between atoms: _268  and  _270
REMARK  113  A    between atoms: _270  and  _271
REMARK  114  A    between atoms: _274  and  _276
REMARK  115  A    between atoms: _276  and  _277
REMARK  116  A    between atoms: _276  and  _279
REMARK  117  A    between atoms: _279  and  _280
REMARK  118  A    between atoms: _280  and  _281
REMARK  119  A    between atoms: _284  and  _286
REMARK  120  A    between atoms: _286  and  _287
REMARK  121  A    between atoms: _286  and  _289
REMARK  122  A    between atoms: _289  and  _290
REMARK  123  A    between atoms: _295  and  _297
REMARK  124  A    between atoms: _297  and  _298
REMARK  125  A    between atoms: _300  and  _302
REMARK  126  A    between atoms: _302  and  _303
REMARK  127  A    between atoms: _302  and  _305
REMARK  128  A    between atoms: _305  and  _306
REMARK  129  A    between atoms: _309  and  _311
REMARK  130  A    between atoms: _311  and  _312
REMARK  131  A    between atoms: _311  and  _314
REMARK  132  A    between atoms: _314  and  _315
REMARK  133  A    between atoms: _318  and  _320
REMARK  134  A    between atoms: _320  and  _321
REMARK  135  A    between atoms: _320  and  _323
REMARK  136  A    between atoms: _323  and  _324
REMARK  137  A    between atoms: _329  and  _331
REMARK  138  A    between atoms: _331  and  _332
REMARK  139  A    between atoms: _331  and  _334
REMARK  140  A    between atoms: _334  and  _335
REMARK  141  A    between atoms: _335  and  _336
REMARK  142  A    between atoms: _341  and  _343
REMARK  143  A    between atoms: _343  and  _344
REMARK  144  A    between atoms: _343  and  _346
REMARK  145  A    between atoms: _346  and  _347
REMARK  146  A    between atoms: _347  and  _348
REMARK  147  A    between atoms: _348  and  _349
REMARK  148  A    between atoms: _358  and  _360
REMARK  149  A    between atoms: _360  and  _361
REMARK  150  A    between atoms: _360  and  _363
REMARK  151  A    between atoms: _363  and  _364
REMARK  152  A    between atoms: _369  and  _370
REMARK  153  A    between atoms: _372  and  _374
REMARK  154  A    between atoms: _374  and  _375
REMARK  155  A    between atoms: _374  and  _377
REMARK  156  A    between atoms: _377  and  _378
REMARK  157  A    between atoms: _381  and  _383
REMARK  158  A    between atoms: _383  and  _384
REMARK  159  A    between atoms: _383  and  _386
REMARK  160  A    between atoms: _386  and  _387
REMARK  161  A    between atoms: _389  and  _391
REMARK  162  A    between atoms: _391  and  _392
REMARK  163  A    between atoms: _391  and  _394
REMARK  164  A    between atoms: _394  and  _395
REMARK  165  A    between atoms: _400  and  _401
REMARK  166  A    between atoms: _403  and  _405
REMARK  167  A    between atoms: _405  and  _406
REMARK  168  A    between atoms: _405  and  _408
REMARK  169  A    between atoms: _408  and  _409
REMARK  170  A    between atoms: _412  and  _414
REMARK  171  A    between atoms: _414  and  _415
REMARK  172  A    between atoms: _414  and  _417
REMARK  173  A    between atoms: _417  and  _418
REMARK  174  A    between atoms: _424  and  _426
REMARK  175  A    between atoms: _426  and  _427
REMARK  176  A    between atoms: _429  and  _431
REMARK  177  A    between atoms: _431  and  _432
REMARK  178  A    between atoms: _431  and  _434
REMARK  179  A    between atoms: _434  and  _435
REMARK  180  A    between atoms: _438  and  _440
REMARK  181  A    between atoms: _440  and  _441
REMARK  182  A    between atoms: _440  and  _443
REMARK  183  A    between atoms: _446  and  _448
REMARK  184  A    between atoms: _448  and  _449
REMARK  185  A    between atoms: _452  and  _454
REMARK  186  A    between atoms: _454  and  _455
REMARK  187  A    between atoms: _454  and  _457
REMARK  188  A    between atoms: _457  and  _458
REMARK  189  A    between atoms: _463  and  _464
REMARK  190  A    between atoms: _466  and  _468
REMARK  191  A    between atoms: _468  and  _469
REMARK  192  A    between atoms: _468  and  _471
REMARK  193  A    between atoms: _471  and  _472
REMARK  194  A    between atoms: _477  and  _478
REMARK  195  A    between atoms: _480  and  _482
REMARK  196  A    between atoms: _482  and  _483
REMARK  197  A    between atoms: _485  and  _487
REMARK  198  A    between atoms: _487  and  _488
REMARK  199  A    between atoms: _487  and  _490
REMARK  200  A    between atoms: _490  and  _491
REMARK  201  A    between atoms: _491  and  _492
REMARK  202  A    between atoms: _492  and  _493
REMARK  203  A    between atoms: _493  and  _494
REMARK  204  A    between atoms: _498  and  _500
REMARK  205  A    between atoms: _500  and  _501
REMARK  206  A    between atoms: _503  and  _505
REMARK  207  A    between atoms: _505  and  _506
REMARK  208  A    between atoms: _505  and  _508
REMARK  209  A    between atoms: _508  and  _509
REMARK  210  A    between atoms: _512  and  _514
REMARK  211  A    between atoms: _514  and  _515
REMARK                            x       y       z     vdW  Elec       q    Type
REMARK                         _______ _______ _______ _____ _____    ______ ____
ROOT
ATOM      1  O   HOH     1       3.493  -2.727  45.291  0.00  0.00    +0.000 OA
ENDROOT
TORSDOF 0
REMARK  Name = ../refined-set-2016/2y7i/2y7i_pocket.pdb
REMARK  211 active torsions:
REMARK  status: ('A' for Active; 'I' for Inactive)
REMARK    1  A    between atoms: _1  and  _3
REMARK    2  A    between atoms: _3  and  _4
REMARK    3  A    between atoms: _3  and  _6
REMARK    4  A    between atoms: _6  and  _7
REMARK    5  A    between atoms: _10  and  _12
REMARK    6  A    between atoms: _12  and  _13
REMARK    7  A    between atoms: _12  and  _15
REMARK    8  A    between atoms: _15  and  _16
REMARK    9  A    between atoms: _18  and  _20
REMARK   10  A    between atoms: _20  and  _21
REMARK   11  A    between atoms: _24  and  _26
REMARK   12  A    between atoms: _26  and  _27
REMARK   13  A    between atoms: _26  and  _29
REMARK   14  A    between atoms: _29  and  _30
REMARK   15  A    between atoms: _33  and  _35
REMARK   16  A    between atoms: _35  and  _36
REMARK   17  A    between atoms: _35  and  _38
REMARK   18  A    between atoms: _38  and  _39
REMARK   19  A    between atoms: _44  and  _45
REMARK   20  A    between atoms: _47  and  _49
REMARK   21  A    between atoms: _49  and  _50
REMARK   22  A    between atoms: _53  and  _55
REMARK   23  A    between atoms: _55  and  _56
REMARK   24  A    between atoms: _55  and  _58
REMARK   25  A    between atoms: _58  and  _59
REMARK   26  A    between atoms: _64  and  _65
REMARK   27  A    between atoms: _67  and  _69
REMARK   28  A    between atoms: _69  and  _70
REMARK   29  A    between atoms: _69  and  _72
REMARK   30  A    between atoms: _72  and  _73
REMARK   31  A    between atoms: _73  and  _74
REMARK   32  A    between atoms: _77  and  _79
REMARK   33  A    between atoms: _79  and  _80
REMARK   34  A    between atoms: _79  and  _82
REMARK   35  A    between atoms: _82  and  _83
REMARK   36  A    between atoms: _89  and  _91
REMARK   37  A    between atoms: _91  and  _92
REMARK   38  A    between atoms: _91  and  _94
REMARK   39  A    between atoms: _94  and  _95
REMARK   40  A    between atoms: _98  and  _100
REMARK   41  A    between atoms: _100  and  _101
REMARK   42  A    between atoms: _100  and  _103
REMARK   43  A    between atoms: _103  and  _104
REMARK   44  A    between atoms: _109  and  _111
REMARK   45  A    between atoms: _111  and  _112
REMARK   46  A    between atoms: _111  and  _114
REMARK   47  A    between atoms: _114  and  _115
REMARK   48  A    between atoms: _115  and  _116
REMARK   49  A    between atoms: _121  and  _123
REMARK   50  A    between atoms: _123  and  _124
REMARK   51  A    between atoms: _123  and  _126
REMARK   52  A    between atoms: _126  and  _127
REMARK   53  A    between atoms: _129  and  _131
REMARK   54  A    between atoms: _131  and  _132
REMARK   55  A    between atoms: _131  and  _134
REMARK   56  A    between atoms: _134  and  _135
REMARK   57  A    between atoms: _141  and  _143
REMARK   58  A    between atoms: _143  and  _144
REMARK   59  A    between atoms: _143  and  _146
REMARK   60  A    between atoms: _146  and  _147
REMARK   61  A    between atoms: _150  and  _152
REMARK   62  A    between atoms: _152  and  _153
REMARK   63  A    between atoms: _152  and  _155
REMARK   64  A    between atoms: _155  and  _156
REMARK   65  A    between atoms: _159  and  _161
REMARK   66  A    between atoms: _161  and  _162
REMARK   67  A    between atoms: _161  and  _164
REMARK   68  A    between atoms: _164  and  _165
REMARK   69  A    between atoms: _168  and  _170
REMARK   70  A    between atoms: _170  and  _171
REMARK   71  A    between atoms: _174  and  _176
REMARK   72  A    between atoms: _176  and  _177
REMARK   73  A    between atoms: _179  and  _181
REMARK   74  A    between atoms: _181  and  _182
REMARK   75  A    between atoms: _181  and  _184
REMARK   76  A    between atoms: _184  and  _185
REMARK   77  A    between atoms: _185  and  _186
REMARK   78  A    between atoms: _188  and  _190
REMARK   79  A    between atoms: _190  and  _191
REMARK   80  A    between atoms: _190  and  _193
REMARK   81  A    between atoms: _193  and  _194
REMARK   82  A    between atoms: _197  and  _199
REMARK   83  A    between atoms: _199  and  _200
REMARK   84  A    between atoms: _199  and  _202
REMARK   85  A    between atoms: _202  and  _203
REMARK   86  A    between atoms: _203  and  _204
REMARK   87  A    between atoms: _206  and  _208
REMARK   88  A    between atoms: _208  and  _209
REMARK   89  A    between atoms: _208  and  _211
REMARK   90  A    between atoms: _211  and  _212
REMARK   91  A    between atoms: _215  and  _217
REMARK   92  A    between atoms: _217  and  _218
REMARK   93  A    between atoms: _217  and  _220
REMARK   94  A    between atoms: _220  and  _221
REMARK   95  A    between atoms: _221  and  _222
REMARK   96  A    between atoms: _222  and  _223
REMARK   97  A    between atoms: _232  and  _234
REMARK   98  A    between atoms: _234  and  _235
REMARK   99  A    between atoms: _234  and  _237
REMARK  100  A    between atoms: _237  and  _238
REMARK  101  A    between atoms: _244  and  _246
REMARK  102  A    between atoms: _246  and  _247
REMARK  103  A    between atoms: _246  and  _249
REMARK  104  A    between atoms: _249  and  _250
REMARK  105  A    between atoms: _250  and  _251
REMARK  106  A    between atoms: _254  and  _256
REMARK  107  A    between atoms: _256  and  _257
REMARK  108  A    between atoms: _259  and  _261
REMARK  109  A    between atoms: _261  and  _262
REMARK  110  A    between atoms: _261  and  _264
REMARK  111  A    between atoms: _264  and  _265
REMARK  112  A    between atoms: _268  and  _270
REMARK  113  A    between atoms: _270  and  _271
REMARK  114  A    between atoms: _274  and  _276
REMARK  115  A    between atoms: _276  and  _277
REMARK  116  A    between atoms: _276  and  _279
REMARK  117  A    between atoms: _279  and  _280
REMARK  118  A    between atoms: _280  and  _281
REMARK  119  A    between atoms: _284  and  _286
REMARK  120  A    between atoms: _286  and  _287
REMARK  121  A    between atoms: _286  and  _289
REMARK  122  A    between atoms: _289  and  _290
REMARK  123  A    between atoms: _295  and  _297
REMARK  124  A    between atoms: _297  and  _298
REMARK  125  A    between atoms: _300  and  _302
REMARK  126  A    between atoms: _302  and  _303
REMARK  127  A    between atoms: _302  and  _305
REMARK  128  A    between atoms: _305  and  _306
REMARK  129  A    between atoms: _309  and  _311
REMARK  130  A    between atoms: _311  and  _312
REMARK  131  A    between atoms: _311  and  _314
REMARK  132  A    between atoms: _314  and  _315
REMARK  133  A    between atoms: _318  and  _320
REMARK  134  A    between atoms: _320  and  _321
REMARK  135  A    between atoms: _320  and  _323
REMARK  136  A    between atoms: _323  and  _324
REMARK  137  A    between atoms: _329  and  _331
REMARK  138  A    between atoms: _331  and  _332
REMARK  139  A    between atoms: _331  and  _334
REMARK  140  A    between atoms: _334  and  _335
REMARK  141  A    between atoms: _335  and  _336
REMARK  142  A    between atoms: _341  and  _343
REMARK  143  A    between atoms: _343  and  _344
REMARK  144  A    between atoms: _343  and  _346
REMARK  145  A    between atoms: _346  and  _347
REMARK  146  A    between atoms: _347  and  _348
REMARK  147  A    between atoms: _348  and  _349
REMARK  148  A    between atoms: _358  and  _360
REMARK  149  A    between atoms: _360  and  _361
REMARK  150  A    between atoms: _360  and  _363
REMARK  151  A    between atoms: _363  and  _364
REMARK  152  A    between atoms: _369  and  _370
REMARK  153  A    between atoms: _372  and  _374
REMARK  154  A    between atoms: _374  and  _375
REMARK  155  A    between atoms: _374  and  _377
REMARK  156  A    between atoms: _377  and  _378
REMARK  157  A    between atoms: _381  and  _383
REMARK  158  A    between atoms: _383  and  _384
REMARK  159  A    between atoms: _383  and  _386
REMARK  160  A    between atoms: _386  and  _387
REMARK  161  A    between atoms: _389  and  _391
REMARK  162  A    between atoms: _391  and  _392
REMARK  163  A    between atoms: _391  and  _394
REMARK  164  A    between atoms: _394  and  _395
REMARK  165  A    between atoms: _400  and  _401
REMARK  166  A    between atoms: _403  and  _405
REMARK  167  A    between atoms: _405  and  _406
REMARK  168  A    between atoms: _405  and  _408
REMARK  169  A    between atoms: _408  and  _409
REMARK  170  A    between atoms: _412  and  _414
REMARK  171  A    between atoms: _414  and  _415
REMARK  172  A    between atoms: _414  and  _417
REMARK  173  A    between atoms: _417  and  _418
REMARK  174  A    between atoms: _424  and  _426
REMARK  175  A    between atoms: _426  and  _427
REMARK  176  A    between atoms: _429  and  _431
REMARK  177  A    between atoms: _431  and  _432
REMARK  178  A    between atoms: _431  and  _434
REMARK  179  A    between atoms: _434  and  _435
REMARK  180  A    between atoms: _438  and  _440
REMARK  181  A    between atoms: _440  and  _441
REMARK  182  A    between atoms: _440  and  _443
REMARK  183  A    between atoms: _446  and  _448
REMARK  184  A    between atoms: _448  and  _449
REMARK  185  A    between atoms: _452  and  _454
REMARK  186  A    between atoms: _454  and  _455
REMARK  187  A    between atoms: _454  and  _457
REMARK  188  A    between atoms: _457  and  _458
REMARK  189  A    between atoms: _463  and  _464
REMARK  190  A    between atoms: _466  and  _468
REMARK  191  A    between atoms: _468  and  _469
REMARK  192  A    between atoms: _468  and  _471
REMARK  193  A    between atoms: _471  and  _472
REMARK  194  A    between atoms: _477  and  _478
REMARK  195  A    between atoms: _480  and  _482
REMARK  196  A    between atoms: _482  and  _483
REMARK  197  A    between atoms: _485  and  _487
REMARK  198  A    between atoms: _487  and  _488
REMARK  199  A    between atoms: _487  and  _490
REMARK  200  A    between atoms: _490  and  _491
REMARK  201  A    between atoms: _491  and  _492
REMARK  202  A    between atoms: _492  and  _493
REMARK  203  A    between atoms: _493  and  _494
REMARK  204  A    between atoms: _498  and  _500
REMARK  205  A    between atoms: _500  and  _501
REMARK  206  A    between atoms: _503  and  _505
REMARK  207  A    between atoms: _505  and  _506
REMARK  208  A    between atoms: _505  and  _508
REMARK  209  A    between atoms: _508  and  _509
REMARK  210  A    between atoms: _512  and  _514
REMARK  211  A    between atoms: _514  and  _515
REMARK                            x       y       z     vdW  Elec       q    Type
REMARK                         _______ _______ _______ _____ _____    ______ ____
ROOT
ATOM      1  O   HOH     1       6.109   4.622  44.173  0.00  0.00    +0.000 OA
ENDROOT
TORSDOF 0
REMARK  Name = ../refined-set-2016/2y7i/2y7i_pocket.pdb
REMARK  211 active torsions:
REMARK  status: ('A' for Active; 'I' for Inactive)
REMARK    1  A    between atoms: _1  and  _3
REMARK    2  A    between atoms: _3  and  _4
REMARK    3  A    between atoms: _3  and  _6
REMARK    4  A    between atoms: _6  and  _7
REMARK    5  A    between atoms: _10  and  _12
REMARK    6  A    between atoms: _12  and  _13
REMARK    7  A    between atoms: _12  and  _15
REMARK    8  A    between atoms: _15  and  _16
REMARK    9  A    between atoms: _18  and  _20
REMARK   10  A    between atoms: _20  and  _21
REMARK   11  A    between atoms: _24  and  _26
REMARK   12  A    between atoms: _26  and  _27
REMARK   13  A    between atoms: _26  and  _29
REMARK   14  A    between atoms: _29  and  _30
REMARK   15  A    between atoms: _33  and  _35
REMARK   16  A    between atoms: _35  and  _36
REMARK   17  A    between atoms: _35  and  _38
REMARK   18  A    between atoms: _38  and  _39
REMARK   19  A    between atoms: _44  and  _45
REMARK   20  A    between atoms: _47  and  _49
REMARK   21  A    between atoms: _49  and  _50
REMARK   22  A    between atoms: _53  and  _55
REMARK   23  A    between atoms: _55  and  _56
REMARK   24  A    between atoms: _55  and  _58
REMARK   25  A    between atoms: _58  and  _59
REMARK   26  A    between atoms: _64  and  _65
REMARK   27  A    between atoms: _67  and  _69
REMARK   28  A    between atoms: _69  and  _70
REMARK   29  A    between atoms: _69  and  _72
REMARK   30  A    between atoms: _72  and  _73
REMARK   31  A    between atoms: _73  and  _74
REMARK   32  A    between atoms: _77  and  _79
REMARK   33  A    between atoms: _79  and  _80
REMARK   34  A    between atoms: _79  and  _82
REMARK   35  A    between atoms: _82  and  _83
REMARK   36  A    between atoms: _89  and  _91
REMARK   37  A    between atoms: _91  and  _92
REMARK   38  A    between atoms: _91  and  _94
REMARK   39  A    between atoms: _94  and  _95
REMARK   40  A    between atoms: _98  and  _100
REMARK   41  A    between atoms: _100  and  _101
REMARK   42  A    between atoms: _100  and  _103
REMARK   43  A    between atoms: _103  and  _104
REMARK   44  A    between atoms: _109  and  _111
REMARK   45  A    between atoms: _111  and  _112
REMARK   46  A    between atoms: _111  and  _114
REMARK   47  A    between atoms: _114  and  _115
REMARK   48  A    between atoms: _115  and  _116
REMARK   49  A    between atoms: _121  and  _123
REMARK   50  A    between atoms: _123  and  _124
REMARK   51  A    between atoms: _123  and  _126
REMARK   52  A    between atoms: _126  and  _127
REMARK   53  A    between atoms: _129  and  _131
REMARK   54  A    between atoms: _131  and  _132
REMARK   55  A    between atoms: _131  and  _134
REMARK   56  A    between atoms: _134  and  _135
REMARK   57  A    between atoms: _141  and  _143
REMARK   58  A    between atoms: _143  and  _144
REMARK   59  A    between atoms: _143  and  _146
REMARK   60  A    between atoms: _146  and  _147
REMARK   61  A    between atoms: _150  and  _152
REMARK   62  A    between atoms: _152  and  _153
REMARK   63  A    between atoms: _152  and  _155
REMARK   64  A    between atoms: _155  and  _156
REMARK   65  A    between atoms: _159  and  _161
REMARK   66  A    between atoms: _161  and  _162
REMARK   67  A    between atoms: _161  and  _164
REMARK   68  A    between atoms: _164  and  _165
REMARK   69  A    between atoms: _168  and  _170
REMARK   70  A    between atoms: _170  and  _171
REMARK   71  A    between atoms: _174  and  _176
REMARK   72  A    between atoms: _176  and  _177
REMARK   73  A    between atoms: _179  and  _181
REMARK   74  A    between atoms: _181  and  _182
REMARK   75  A    between atoms: _181  and  _184
REMARK   76  A    between atoms: _184  and  _185
REMARK   77  A    between atoms: _185  and  _186
REMARK   78  A    between atoms: _188  and  _190
REMARK   79  A    between atoms: _190  and  _191
REMARK   80  A    between atoms: _190  and  _193
REMARK   81  A    between atoms: _193  and  _194
REMARK   82  A    between atoms: _197  and  _199
REMARK   83  A    between atoms: _199  and  _200
REMARK   84  A    between atoms: _199  and  _202
REMARK   85  A    between atoms: _202  and  _203
REMARK   86  A    between atoms: _203  and  _204
REMARK   87  A    between atoms: _206  and  _208
REMARK   88  A    between atoms: _208  and  _209
REMARK   89  A    between atoms: _208  and  _211
REMARK   90  A    between atoms: _211  and  _212
REMARK   91  A    between atoms: _215  and  _217
REMARK   92  A    between atoms: _217  and  _218
REMARK   93  A    between atoms: _217  and  _220
REMARK   94  A    between atoms: _220  and  _221
REMARK   95  A    between atoms: _221  and  _222
REMARK   96  A    between atoms: _222  and  _223
REMARK   97  A    between atoms: _232  and  _234
REMARK   98  A    between atoms: _234  and  _235
REMARK   99  A    between atoms: _234  and  _237
REMARK  100  A    between atoms: _237  and  _238
REMARK  101  A    between atoms: _244  and  _246
REMARK  102  A    between atoms: _246  and  _247
REMARK  103  A    between atoms: _246  and  _249
REMARK  104  A    between atoms: _249  and  _250
REMARK  105  A    between atoms: _250  and  _251
REMARK  106  A    between atoms: _254  and  _256
REMARK  107  A    between atoms: _256  and  _257
REMARK  108  A    between atoms: _259  and  _261
REMARK  109  A    between atoms: _261  and  _262
REMARK  110  A    between atoms: _261  and  _264
REMARK  111  A    between atoms: _264  and  _265
REMARK  112  A    between atoms: _268  and  _270
REMARK  113  A    between atoms: _270  and  _271
REMARK  114  A    between atoms: _274  and  _276
REMARK  115  A    between atoms: _276  and  _277
REMARK  116  A    between atoms: _276  and  _279
REMARK  117  A    between atoms: _279  and  _280
REMARK  118  A    between atoms: _280  and  _281
REMARK  119  A    between atoms: _284  and  _286
REMARK  120  A    between atoms: _286  and  _287
REMARK  121  A    between atoms: _286  and  _289
REMARK  122  A    between atoms: _289  and  _290
REMARK  123  A    between atoms: _295  and  _297
REMARK  124  A    between atoms: _297  and  _298
REMARK  125  A    between atoms: _300  and  _302
REMARK  126  A    between atoms: _302  and  _303
REMARK  127  A    between atoms: _302  and  _305
REMARK  128  A    between atoms: _305  and  _306
REMARK  129  A    between atoms: _309  and  _311
REMARK  130  A    between atoms: _311  and  _312
REMARK  131  A    between atoms: _311  and  _314
REMARK  132  A    between atoms: _314  and  _315
REMARK  133  A    between atoms: _318  and  _320
REMARK  134  A    between atoms: _320  and  _321
REMARK  135  A    between atoms: _320  and  _323
REMARK  136  A    between atoms: _323  and  _324
REMARK  137  A    between atoms: _329  and  _331
REMARK  138  A    between atoms: _331  and  _332
REMARK  139  A    between atoms: _331  and  _334
REMARK  140  A    between atoms: _334  and  _335
REMARK  141  A    between atoms: _335  and  _336
REMARK  142  A    between atoms: _341  and  _343
REMARK  143  A    between atoms: _343  and  _344
REMARK  144  A    between atoms: _343  and  _346
REMARK  145  A    between atoms: _346  and  _347
REMARK  146  A    between atoms: _347  and  _348
REMARK  147  A    between atoms: _348  and  _349
REMARK  148  A    between atoms: _358  and  _360
REMARK  149  A    between atoms: _360  and  _361
REMARK  150  A    between atoms: _360  and  _363
REMARK  151  A    between atoms: _363  and  _364
REMARK  152  A    between atoms: _369  and  _370
REMARK  153  A    between atoms: _372  and  _374
REMARK  154  A    between atoms: _374  and  _375
REMARK  155  A    between atoms: _374  and  _377
REMARK  156  A    between atoms: _377  and  _378
REMARK  157  A    between atoms: _381  and  _383
REMARK  158  A    between atoms: _383  and  _384
REMARK  159  A    between atoms: _383  and  _386
REMARK  160  A    between atoms: _386  and  _387
REMARK  161  A    between atoms: _389  and  _391
REMARK  162  A    between atoms: _391  and  _392
REMARK  163  A    between atoms: _391  and  _394
REMARK  164  A    between atoms: _394  and  _395
REMARK  165  A    between atoms: _400  and  _401
REMARK  166  A    between atoms: _403  and  _405
REMARK  167  A    between atoms: _405  and  _406
REMARK  168  A    between atoms: _405  and  _408
REMARK  169  A    between atoms: _408  and  _409
REMARK  170  A    between atoms: _412  and  _414
REMARK  171  A    between atoms: _414  and  _415
REMARK  172  A    between atoms: _414  and  _417
REMARK  173  A    between atoms: _417  and  _418
REMARK  174  A    between atoms: _424  and  _426
REMARK  175  A    between atoms: _426  and  _427
REMARK  176  A    between atoms: _429  and  _431
REMARK  177  A    between atoms: _431  and  _432
REMARK  178  A    between atoms: _431  and  _434
REMARK  179  A    between atoms: _434  and  _435
REMARK  180  A    between atoms: _438  and  _440
REMARK  181  A    between atoms: _440  and  _441
REMARK  182  A    between atoms: _440  and  _443
REMARK  183  A    between atoms: _446  and  _448
REMARK  184  A    between atoms: _448  and  _449
REMARK  185  A    between atoms: _452  and  _454
REMARK  186  A    between atoms: _454  and  _455
REMARK  187  A    between atoms: _454  and  _457
REMARK  188  A    between atoms: _457  and  _458
REMARK  189  A    between atoms: _463  and  _464
REMARK  190  A    between atoms: _466  and  _468
REMARK  191  A    between atoms: _468  and  _469
REMARK  192  A    between atoms: _468  and  _471
REMARK  193  A    between atoms: _471  and  _472
REMARK  194  A    between atoms: _477  and  _478
REMARK  195  A    between atoms: _480  and  _482
REMARK  196  A    between atoms: _482  and  _483
REMARK  197  A    between atoms: _485  and  _487
REMARK  198  A    between atoms: _487  and  _488
REMARK  199  A    between atoms: _487  and  _490
REMARK  200  A    between atoms: _490  and  _491
REMARK  201  A    between atoms: _491  and  _492
REMARK  202  A    between atoms: _492  and  _493
REMARK  203  A    between atoms: _493  and  _494
REMARK  204  A    between atoms: _498  and  _500
REMARK  205  A    between atoms: _500  and  _501
REMARK  206  A    between atoms: _503  and  _505
REMARK  207  A    between atoms: _505  and  _506
REMARK  208  A    between atoms: _505  and  _508
REMARK  209  A    between atoms: _508  and  _509
REMARK  210  A    between atoms: _512  and  _514
REMARK  211  A    between atoms: _514  and  _515
REMARK                            x       y       z     vdW  Elec       q    Type
REMARK                         _______ _______ _______ _____ _____    ______ ____
ROOT
ATOM      1  O   HOH     1      -2.557 -11.646  34.697  0.00  0.00    +0.000 OA
ENDROOT
TORSDOF 0
REMARK  Name = ../refined-set-2016/2y7i/2y7i_pocket.pdb
REMARK  211 active torsions:
REMARK  status: ('A' for Active; 'I' for Inactive)
REMARK    1  A    between atoms: _1  and  _3
REMARK    2  A    between atoms: _3  and  _4
REMARK    3  A    between atoms: _3  and  _6
REMARK    4  A    between atoms: _6  and  _7
REMARK    5  A    between atoms: _10  and  _12
REMARK    6  A    between atoms: _12  and  _13
REMARK    7  A    between atoms: _12  and  _15
REMARK    8  A    between atoms: _15  and  _16
REMARK    9  A    between atoms: _18  and  _20
REMARK   10  A    between atoms: _20  and  _21
REMARK   11  A    between atoms: _24  and  _26
REMARK   12  A    between atoms: _26  and  _27
REMARK   13  A    between atoms: _26  and  _29
REMARK   14  A    between atoms: _29  and  _30
REMARK   15  A    between atoms: _33  and  _35
REMARK   16  A    between atoms: _35  and  _36
REMARK   17  A    between atoms: _35  and  _38
REMARK   18  A    between atoms: _38  and  _39
REMARK   19  A    between atoms: _44  and  _45
REMARK   20  A    between atoms: _47  and  _49
REMARK   21  A    between atoms: _49  and  _50
REMARK   22  A    between atoms: _53  and  _55
REMARK   23  A    between atoms: _55  and  _56
REMARK   24  A    between atoms: _55  and  _58
REMARK   25  A    between atoms: _58  and  _59
REMARK   26  A    between atoms: _64  and  _65
REMARK   27  A    between atoms: _67  and  _69
REMARK   28  A    between atoms: _69  and  _70
REMARK   29  A    between atoms: _69  and  _72
REMARK   30  A    between atoms: _72  and  _73
REMARK   31  A    between atoms: _73  and  _74
REMARK   32  A    between atoms: _77  and  _79
REMARK   33  A    between atoms: _79  and  _80
REMARK   34  A    between atoms: _79  and  _82
REMARK   35  A    between atoms: _82  and  _83
REMARK   36  A    between atoms: _89  and  _91
REMARK   37  A    between atoms: _91  and  _92
REMARK   38  A    between atoms: _91  and  _94
REMARK   39  A    between atoms: _94  and  _95
REMARK   40  A    between atoms: _98  and  _100
REMARK   41  A    between atoms: _100  and  _101
REMARK   42  A    between atoms: _100  and  _103
REMARK   43  A    between atoms: _103  and  _104
REMARK   44  A    between atoms: _109  and  _111
REMARK   45  A    between atoms: _111  and  _112
REMARK   46  A    between atoms: _111  and  _114
REMARK   47  A    between atoms: _114  and  _115
REMARK   48  A    between atoms: _115  and  _116
REMARK   49  A    between atoms: _121  and  _123
REMARK   50  A    between atoms: _123  and  _124
REMARK   51  A    between atoms: _123  and  _126
REMARK   52  A    between atoms: _126  and  _127
REMARK   53  A    between atoms: _129  and  _131
REMARK   54  A    between atoms: _131  and  _132
REMARK   55  A    between atoms: _131  and  _134
REMARK   56  A    between atoms: _134  and  _135
REMARK   57  A    between atoms: _141  and  _143
REMARK   58  A    between atoms: _143  and  _144
REMARK   59  A    between atoms: _143  and  _146
REMARK   60  A    between atoms: _146  and  _147
REMARK   61  A    between atoms: _150  and  _152
REMARK   62  A    between atoms: _152  and  _153
REMARK   63  A    between atoms: _152  and  _155
REMARK   64  A    between atoms: _155  and  _156
REMARK   65  A    between atoms: _159  and  _161
REMARK   66  A    between atoms: _161  and  _162
REMARK   67  A    between atoms: _161  and  _164
REMARK   68  A    between atoms: _164  and  _165
REMARK   69  A    between atoms: _168  and  _170
REMARK   70  A    between atoms: _170  and  _171
REMARK   71  A    between atoms: _174  and  _176
REMARK   72  A    between atoms: _176  and  _177
REMARK   73  A    between atoms: _179  and  _181
REMARK   74  A    between atoms: _181  and  _182
REMARK   75  A    between atoms: _181  and  _184
REMARK   76  A    between atoms: _184  and  _185
REMARK   77  A    between atoms: _185  and  _186
REMARK   78  A    between atoms: _188  and  _190
REMARK   79  A    between atoms: _190  and  _191
REMARK   80  A    between atoms: _190  and  _193
REMARK   81  A    between atoms: _193  and  _194
REMARK   82  A    between atoms: _197  and  _199
REMARK   83  A    between atoms: _199  and  _200
REMARK   84  A    between atoms: _199  and  _202
REMARK   85  A    between atoms: _202  and  _203
REMARK   86  A    between atoms: _203  and  _204
REMARK   87  A    between atoms: _206  and  _208
REMARK   88  A    between atoms: _208  and  _209
REMARK   89  A    between atoms: _208  and  _211
REMARK   90  A    between atoms: _211  and  _212
REMARK   91  A    between atoms: _215  and  _217
REMARK   92  A    between atoms: _217  and  _218
REMARK   93  A    between atoms: _217  and  _220
REMARK   94  A    between atoms: _220  and  _221
REMARK   95  A    between atoms: _221  and  _222
REMARK   96  A    between atoms: _222  and  _223
REMARK   97  A    between atoms: _232  and  _234
REMARK   98  A    between atoms: _234  and  _235
REMARK   99  A    between atoms: _234  and  _237
REMARK  100  A    between atoms: _237  and  _238
REMARK  101  A    between atoms: _244  and  _246
REMARK  102  A    between atoms: _246  and  _247
REMARK  103  A    between atoms: _246  and  _249
REMARK  104  A    between atoms: _249  and  _250
REMARK  105  A    between atoms: _250  and  _251
REMARK  106  A    between atoms: _254  and  _256
REMARK  107  A    between atoms: _256  and  _257
REMARK  108  A    between atoms: _259  and  _261
REMARK  109  A    between atoms: _261  and  _262
REMARK  110  A    between atoms: _261  and  _264
REMARK  111  A    between atoms: _264  and  _265
REMARK  112  A    between atoms: _268  and  _270
REMARK  113  A    between atoms: _270  and  _271
REMARK  114  A    between atoms: _274  and  _276
REMARK  115  A    between atoms: _276  and  _277
REMARK  116  A    between atoms: _276  and  _279
REMARK  117  A    between atoms: _279  and  _280
REMARK  118  A    between atoms: _280  and  _281
REMARK  119  A    between atoms: _284  and  _286
REMARK  120  A    between atoms: _286  and  _287
REMARK  121  A    between atoms: _286  and  _289
REMARK  122  A    between atoms: _289  and  _290
REMARK  123  A    between atoms: _295  and  _297
REMARK  124  A    between atoms: _297  and  _298
REMARK  125  A    between atoms: _300  and  _302
REMARK  126  A    between atoms: _302  and  _303
REMARK  127  A    between atoms: _302  and  _305
REMARK  128  A    between atoms: _305  and  _306
REMARK  129  A    between atoms: _309  and  _311
REMARK  130  A    between atoms: _311  and  _312
REMARK  131  A    between atoms: _311  and  _314
REMARK  132  A    between atoms: _314  and  _315
REMARK  133  A    between atoms: _318  and  _320
REMARK  134  A    between atoms: _320  and  _321
REMARK  135  A    between atoms: _320  and  _323
REMARK  136  A    between atoms: _323  and  _324
REMARK  137  A    between atoms: _329  and  _331
REMARK  138  A    between atoms: _331  and  _332
REMARK  139  A    between atoms: _331  and  _334
REMARK  140  A    between atoms: _334  and  _335
REMARK  141  A    between atoms: _335  and  _336
REMARK  142  A    between atoms: _341  and  _343
REMARK  143  A    between atoms: _343  and  _344
REMARK  144  A    between atoms: _343  and  _346
REMARK  145  A    between atoms: _346  and  _347
REMARK  146  A    between atoms: _347  and  _348
REMARK  147  A    between atoms: _348  and  _349
REMARK  148  A    between atoms: _358  and  _360
REMARK  149  A    between atoms: _360  and  _361
REMARK  150  A    between atoms: _360  and  _363
REMARK  151  A    between atoms: _363  and  _364
REMARK  152  A    between atoms: _369  and  _370
REMARK  153  A    between atoms: _372  and  _374
REMARK  154  A    between atoms: _374  and  _375
REMARK  155  A    between atoms: _374  and  _377
REMARK  156  A    between atoms: _377  and  _378
REMARK  157  A    between atoms: _381  and  _383
REMARK  158  A    between atoms: _383  and  _384
REMARK  159  A    between atoms: _383  and  _386
REMARK  160  A    between atoms: _386  and  _387
REMARK  161  A    between atoms: _389  and  _391
REMARK  162  A    between atoms: _391  and  _392
REMARK  163  A    between atoms: _391  and  _394
REMARK  164  A    between atoms: _394  and  _395
REMARK  165  A    between atoms: _400  and  _401
REMARK  166  A    between atoms: _403  and  _405
REMARK  167  A    between atoms: _405  and  _406
REMARK  168  A    between atoms: _405  and  _408
REMARK  169  A    between atoms: _408  and  _409
REMARK  170  A    between atoms: _412  and  _414
REMARK  171  A    between atoms: _414  and  _415
REMARK  172  A    between atoms: _414  and  _417
REMARK  173  A    between atoms: _417  and  _418
REMARK  174  A    between atoms: _424  and  _426
REMARK  175  A    between atoms: _426  and  _427
REMARK  176  A    between atoms: _429  and  _431
REMARK  177  A    between atoms: _431  and  _432
REMARK  178  A    between atoms: _431  and  _434
REMARK  179  A    between atoms: _434  and  _435
REMARK  180  A    between atoms: _438  and  _440
REMARK  181  A    between atoms: _440  and  _441
REMARK  182  A    between atoms: _440  and  _443
REMARK  183  A    between atoms: _446  and  _448
REMARK  184  A    between atoms: _448  and  _449
REMARK  185  A    between atoms: _452  and  _454
REMARK  186  A    between atoms: _454  and  _455
REMARK  187  A    between atoms: _454  and  _457
REMARK  188  A    between atoms: _457  and  _458
REMARK  189  A    between atoms: _463  and  _464
REMARK  190  A    between atoms: _466  and  _468
REMARK  191  A    between atoms: _468  and  _469
REMARK  192  A    between atoms: _468  and  _471
REMARK  193  A    between atoms: _471  and  _472
REMARK  194  A    between atoms: _477  and  _478
REMARK  195  A    between atoms: _480  and  _482
REMARK  196  A    between atoms: _482  and  _483
REMARK  197  A    between atoms: _485  and  _487
REMARK  198  A    between atoms: _487  and  _488
REMARK  199  A    between atoms: _487  and  _490
REMARK  200  A    between atoms: _490  and  _491
REMARK  201  A    between atoms: _491  and  _492
REMARK  202  A    between atoms: _492  and  _493
REMARK  203  A    between atoms: _493  and  _494
REMARK  204  A    between atoms: _498  and  _500
REMARK  205  A    between atoms: _500  and  _501
REMARK  206  A    between atoms: _503  and  _505
REMARK  207  A    between atoms: _505  and  _506
REMARK  208  A    between atoms: _505  and  _508
REMARK  209  A    between atoms: _508  and  _509
REMARK  210  A    between atoms: _512  and  _514
REMARK  211  A    between atoms: _514  and  _515
REMARK                            x       y       z     vdW  Elec       q    Type
REMARK                         _______ _______ _______ _____ _____    ______ ____
ROOT
ATOM      1  O   HOH     1      -1.188  -8.220  36.217  0.00  0.00    +0.000 OA
ENDROOT
TORSDOF 0
REMARK  Name = ../refined-set-2016/2y7i/2y7i_pocket.pdb
REMARK  211 active torsions:
REMARK  status: ('A' for Active; 'I' for Inactive)
REMARK    1  A    between atoms: _1  and  _3
REMARK    2  A    between atoms: _3  and  _4
REMARK    3  A    between atoms: _3  and  _6
REMARK    4  A    between atoms: _6  and  _7
REMARK    5  A    between atoms: _10  and  _12
REMARK    6  A    between atoms: _12  and  _13
REMARK    7  A    between atoms: _12  and  _15
REMARK    8  A    between atoms: _15  and  _16
REMARK    9  A    between atoms: _18  and  _20
REMARK   10  A    between atoms: _20  and  _21
REMARK   11  A    between atoms: _24  and  _26
REMARK   12  A    between atoms: _26  and  _27
REMARK   13  A    between atoms: _26  and  _29
REMARK   14  A    between atoms: _29  and  _30
REMARK   15  A    between atoms: _33  and  _35
REMARK   16  A    between atoms: _35  and  _36
REMARK   17  A    between atoms: _35  and  _38
REMARK   18  A    between atoms: _38  and  _39
REMARK   19  A    between atoms: _44  and  _45
REMARK   20  A    between atoms: _47  and  _49
REMARK   21  A    between atoms: _49  and  _50
REMARK   22  A    between atoms: _53  and  _55
REMARK   23  A    between atoms: _55  and  _56
REMARK   24  A    between atoms: _55  and  _58
REMARK   25  A    between atoms: _58  and  _59
REMARK   26  A    between atoms: _64  and  _65
REMARK   27  A    between atoms: _67  and  _69
REMARK   28  A    between atoms: _69  and  _70
REMARK   29  A    between atoms: _69  and  _72
REMARK   30  A    between atoms: _72  and  _73
REMARK   31  A    between atoms: _73  and  _74
REMARK   32  A    between atoms: _77  and  _79
REMARK   33  A    between atoms: _79  and  _80
REMARK   34  A    between atoms: _79  and  _82
REMARK   35  A    between atoms: _82  and  _83
REMARK   36  A    between atoms: _89  and  _91
REMARK   37  A    between atoms: _91  and  _92
REMARK   38  A    between atoms: _91  and  _94
REMARK   39  A    between atoms: _94  and  _95
REMARK   40  A    between atoms: _98  and  _100
REMARK   41  A    between atoms: _100  and  _101
REMARK   42  A    between atoms: _100  and  _103
REMARK   43  A    between atoms: _103  and  _104
REMARK   44  A    between atoms: _109  and  _111
REMARK   45  A    between atoms: _111  and  _112
REMARK   46  A    between atoms: _111  and  _114
REMARK   47  A    between atoms: _114  and  _115
REMARK   48  A    between atoms: _115  and  _116
REMARK   49  A    between atoms: _121  and  _123
REMARK   50  A    between atoms: _123  and  _124
REMARK   51  A    between atoms: _123  and  _126
REMARK   52  A    between atoms: _126  and  _127
REMARK   53  A    between atoms: _129  and  _131
REMARK   54  A    between atoms: _131  and  _132
REMARK   55  A    between atoms: _131  and  _134
REMARK   56  A    between atoms: _134  and  _135
REMARK   57  A    between atoms: _141  and  _143
REMARK   58  A    between atoms: _143  and  _144
REMARK   59  A    between atoms: _143  and  _146
REMARK   60  A    between atoms: _146  and  _147
REMARK   61  A    between atoms: _150  and  _152
REMARK   62  A    between atoms: _152  and  _153
REMARK   63  A    between atoms: _152  and  _155
REMARK   64  A    between atoms: _155  and  _156
REMARK   65  A    between atoms: _159  and  _161
REMARK   66  A    between atoms: _161  and  _162
REMARK   67  A    between atoms: _161  and  _164
REMARK   68  A    between atoms: _164  and  _165
REMARK   69  A    between atoms: _168  and  _170
REMARK   70  A    between atoms: _170  and  _171
REMARK   71  A    between atoms: _174  and  _176
REMARK   72  A    between atoms: _176  and  _177
REMARK   73  A    between atoms: _179  and  _181
REMARK   74  A    between atoms: _181  and  _182
REMARK   75  A    between atoms: _181  and  _184
REMARK   76  A    between atoms: _184  and  _185
REMARK   77  A    between atoms: _185  and  _186
REMARK   78  A    between atoms: _188  and  _190
REMARK   79  A    between atoms: _190  and  _191
REMARK   80  A    between atoms: _190  and  _193
REMARK   81  A    between atoms: _193  and  _194
REMARK   82  A    between atoms: _197  and  _199
REMARK   83  A    between atoms: _199  and  _200
REMARK   84  A    between atoms: _199  and  _202
REMARK   85  A    between atoms: _202  and  _203
REMARK   86  A    between atoms: _203  and  _204
REMARK   87  A    between atoms: _206  and  _208
REMARK   88  A    between atoms: _208  and  _209
REMARK   89  A    between atoms: _208  and  _211
REMARK   90  A    between atoms: _211  and  _212
REMARK   91  A    between atoms: _215  and  _217
REMARK   92  A    between atoms: _217  and  _218
REMARK   93  A    between atoms: _217  and  _220
REMARK   94  A    between atoms: _220  and  _221
REMARK   95  A    between atoms: _221  and  _222
REMARK   96  A    between atoms: _222  and  _223
REMARK   97  A    between atoms: _232  and  _234
REMARK   98  A    between atoms: _234  and  _235
REMARK   99  A    between atoms: _234  and  _237
REMARK  100  A    between atoms: _237  and  _238
REMARK  101  A    between atoms: _244  and  _246
REMARK  102  A    between atoms: _246  and  _247
REMARK  103  A    between atoms: _246  and  _249
REMARK  104  A    between atoms: _249  and  _250
REMARK  105  A    between atoms: _250  and  _251
REMARK  106  A    between atoms: _254  and  _256
REMARK  107  A    between atoms: _256  and  _257
REMARK  108  A    between atoms: _259  and  _261
REMARK  109  A    between atoms: _261  and  _262
REMARK  110  A    between atoms: _261  and  _264
REMARK  111  A    between atoms: _264  and  _265
REMARK  112  A    between atoms: _268  and  _270
REMARK  113  A    between atoms: _270  and  _271
REMARK  114  A    between atoms: _274  and  _276
REMARK  115  A    between atoms: _276  and  _277
REMARK  116  A    between atoms: _276  and  _279
REMARK  117  A    between atoms: _279  and  _280
REMARK  118  A    between atoms: _280  and  _281
REMARK  119  A    between atoms: _284  and  _286
REMARK  120  A    between atoms: _286  and  _287
REMARK  121  A    between atoms: _286  and  _289
REMARK  122  A    between atoms: _289  and  _290
REMARK  123  A    between atoms: _295  and  _297
REMARK  124  A    between atoms: _297  and  _298
REMARK  125  A    between atoms: _300  and  _302
REMARK  126  A    between atoms: _302  and  _303
REMARK  127  A    between atoms: _302  and  _305
REMARK  128  A    between atoms: _305  and  _306
REMARK  129  A    between atoms: _309  and  _311
REMARK  130  A    between atoms: _311  and  _312
REMARK  131  A    between atoms: _311  and  _314
REMARK  132  A    between atoms: _314  and  _315
REMARK  133  A    between atoms: _318  and  _320
REMARK  134  A    between atoms: _320  and  _321
REMARK  135  A    between atoms: _320  and  _323
REMARK  136  A    between atoms: _323  and  _324
REMARK  137  A    between atoms: _329  and  _331
REMARK  138  A    between atoms: _331  and  _332
REMARK  139  A    between atoms: _331  and  _334
REMARK  140  A    between atoms: _334  and  _335
REMARK  141  A    between atoms: _335  and  _336
REMARK  142  A    between atoms: _341  and  _343
REMARK  143  A    between atoms: _343  and  _344
REMARK  144  A    between atoms: _343  and  _346
REMARK  145  A    between atoms: _346  and  _347
REMARK  146  A    between atoms: _347  and  _348
REMARK  147  A    between atoms: _348  and  _349
REMARK  148  A    between atoms: _358  and  _360
REMARK  149  A    between atoms: _360  and  _361
REMARK  150  A    between atoms: _360  and  _363
REMARK  151  A    between atoms: _363  and  _364
REMARK  152  A    between atoms: _369  and  _370
REMARK  153  A    between atoms: _372  and  _374
REMARK  154  A    between atoms: _374  and  _375
REMARK  155  A    between atoms: _374  and  _377
REMARK  156  A    between atoms: _377  and  _378
REMARK  157  A    between atoms: _381  and  _383
REMARK  158  A    between atoms: _383  and  _384
REMARK  159  A    between atoms: _383  and  _386
REMARK  160  A    between atoms: _386  and  _387
REMARK  161  A    between atoms: _389  and  _391
REMARK  162  A    between atoms: _391  and  _392
REMARK  163  A    between atoms: _391  and  _394
REMARK  164  A    between atoms: _394  and  _395
REMARK  165  A    between atoms: _400  and  _401
REMARK  166  A    between atoms: _403  and  _405
REMARK  167  A    between atoms: _405  and  _406
REMARK  168  A    between atoms: _405  and  _408
REMARK  169  A    between atoms: _408  and  _409
REMARK  170  A    between atoms: _412  and  _414
REMARK  171  A    between atoms: _414  and  _415
REMARK  172  A    between atoms: _414  and  _417
REMARK  173  A    between atoms: _417  and  _418
REMARK  174  A    between atoms: _424  and  _426
REMARK  175  A    between atoms: _426  and  _427
REMARK  176  A    between atoms: _429  and  _431
REMARK  177  A    between atoms: _431  and  _432
REMARK  178  A    between atoms: _431  and  _434
REMARK  179  A    between atoms: _434  and  _435
REMARK  180  A    between atoms: _438  and  _440
REMARK  181  A    between atoms: _440  and  _441
REMARK  182  A    between atoms: _440  and  _443
REMARK  183  A    between atoms: _446  and  _448
REMARK  184  A    between atoms: _448  and  _449
REMARK  185  A    between atoms: _452  and  _454
REMARK  186  A    between atoms: _454  and  _455
REMARK  187  A    between atoms: _454  and  _457
REMARK  188  A    between atoms: _457  and  _458
REMARK  189  A    between atoms: _463  and  _464
REMARK  190  A    between atoms: _466  and  _468
REMARK  191  A    between atoms: _468  and  _469
REMARK  192  A    between atoms: _468  and  _471
REMARK  193  A    between atoms: _471  and  _472
REMARK  194  A    between atoms: _477  and  _478
REMARK  195  A    between atoms: _480  and  _482
REMARK  196  A    between atoms: _482  and  _483
REMARK  197  A    between atoms: _485  and  _487
REMARK  198  A    between atoms: _487  and  _488
REMARK  199  A    between atoms: _487  and  _490
REMARK  200  A    between atoms: _490  and  _491
REMARK  201  A    between atoms: _491  and  _492
REMARK  202  A    between atoms: _492  and  _493
REMARK  203  A    between atoms: _493  and  _494
REMARK  204  A    between atoms: _498  and  _500
REMARK  205  A    between atoms: _500  and  _501
REMARK  206  A    between atoms: _503  and  _505
REMARK  207  A    between atoms: _505  and  _506
REMARK  208  A    between atoms: _505  and  _508
REMARK  209  A    between atoms: _508  and  _509
REMARK  210  A    between atoms: _512  and  _514
REMARK  211  A    between atoms: _514  and  _515
REMARK                            x       y       z     vdW  Elec       q    Type
REMARK                         _______ _______ _______ _____ _____    ______ ____
ROOT
ATOM      1  O   HOH     1      -0.507   6.532  38.355  0.00  0.00    +0.000 OA
ENDROOT
TORSDOF 0
REMARK  Name = ../refined-set-2016/2y7i/2y7i_pocket.pdb
REMARK  211 active torsions:
REMARK  status: ('A' for Active; 'I' for Inactive)
REMARK    1  A    between atoms: _1  and  _3
REMARK    2  A    between atoms: _3  and  _4
REMARK    3  A    between atoms: _3  and  _6
REMARK    4  A    between atoms: _6  and  _7
REMARK    5  A    between atoms: _10  and  _12
REMARK    6  A    between atoms: _12  and  _13
REMARK    7  A    between atoms: _12  and  _15
REMARK    8  A    between atoms: _15  and  _16
REMARK    9  A    between atoms: _18  and  _20
REMARK   10  A    between atoms: _20  and  _21
REMARK   11  A    between atoms: _24  and  _26
REMARK   12  A    between atoms: _26  and  _27
REMARK   13  A    between atoms: _26  and  _29
REMARK   14  A    between atoms: _29  and  _30
REMARK   15  A    between atoms: _33  and  _35
REMARK   16  A    between atoms: _35  and  _36
REMARK   17  A    between atoms: _35  and  _38
REMARK   18  A    between atoms: _38  and  _39
REMARK   19  A    between atoms: _44  and  _45
REMARK   20  A    between atoms: _47  and  _49
REMARK   21  A    between atoms: _49  and  _50
REMARK   22  A    between atoms: _53  and  _55
REMARK   23  A    between atoms: _55  and  _56
REMARK   24  A    between atoms: _55  and  _58
REMARK   25  A    between atoms: _58  and  _59
REMARK   26  A    between atoms: _64  and  _65
REMARK   27  A    between atoms: _67  and  _69
REMARK   28  A    between atoms: _69  and  _70
REMARK   29  A    between atoms: _69  and  _72
REMARK   30  A    between atoms: _72  and  _73
REMARK   31  A    between atoms: _73  and  _74
REMARK   32  A    between atoms: _77  and  _79
REMARK   33  A    between atoms: _79  and  _80
REMARK   34  A    between atoms: _79  and  _82
REMARK   35  A    between atoms: _82  and  _83
REMARK   36  A    between atoms: _89  and  _91
REMARK   37  A    between atoms: _91  and  _92
REMARK   38  A    between atoms: _91  and  _94
REMARK   39  A    between atoms: _94  and  _95
REMARK   40  A    between atoms: _98  and  _100
REMARK   41  A    between atoms: _100  and  _101
REMARK   42  A    between atoms: _100  and  _103
REMARK   43  A    between atoms: _103  and  _104
REMARK   44  A    between atoms: _109  and  _111
REMARK   45  A    between atoms: _111  and  _112
REMARK   46  A    between atoms: _111  and  _114
REMARK   47  A    between atoms: _114  and  _115
REMARK   48  A    between atoms: _115  and  _116
REMARK   49  A    between atoms: _121  and  _123
REMARK   50  A    between atoms: _123  and  _124
REMARK   51  A    between atoms: _123  and  _126
REMARK   52  A    between atoms: _126  and  _127
REMARK   53  A    between atoms: _129  and  _131
REMARK   54  A    between atoms: _131  and  _132
REMARK   55  A    between atoms: _131  and  _134
REMARK   56  A    between atoms: _134  and  _135
REMARK   57  A    between atoms: _141  and  _143
REMARK   58  A    between atoms: _143  and  _144
REMARK   59  A    between atoms: _143  and  _146
REMARK   60  A    between atoms: _146  and  _147
REMARK   61  A    between atoms: _150  and  _152
REMARK   62  A    between atoms: _152  and  _153
REMARK   63  A    between atoms: _152  and  _155
REMARK   64  A    between atoms: _155  and  _156
REMARK   65  A    between atoms: _159  and  _161
REMARK   66  A    between atoms: _161  and  _162
REMARK   67  A    between atoms: _161  and  _164
REMARK   68  A    between atoms: _164  and  _165
REMARK   69  A    between atoms: _168  and  _170
REMARK   70  A    between atoms: _170  and  _171
REMARK   71  A    between atoms: _174  and  _176
REMARK   72  A    between atoms: _176  and  _177
REMARK   73  A    between atoms: _179  and  _181
REMARK   74  A    between atoms: _181  and  _182
REMARK   75  A    between atoms: _181  and  _184
REMARK   76  A    between atoms: _184  and  _185
REMARK   77  A    between atoms: _185  and  _186
REMARK   78  A    between atoms: _188  and  _190
REMARK   79  A    between atoms: _190  and  _191
REMARK   80  A    between atoms: _190  and  _193
REMARK   81  A    between atoms: _193  and  _194
REMARK   82  A    between atoms: _197  and  _199
REMARK   83  A    between atoms: _199  and  _200
REMARK   84  A    between atoms: _199  and  _202
REMARK   85  A    between atoms: _202  and  _203
REMARK   86  A    between atoms: _203  and  _204
REMARK   87  A    between atoms: _206  and  _208
REMARK   88  A    between atoms: _208  and  _209
REMARK   89  A    between atoms: _208  and  _211
REMARK   90  A    between atoms: _211  and  _212
REMARK   91  A    between atoms: _215  and  _217
REMARK   92  A    between atoms: _217  and  _218
REMARK   93  A    between atoms: _217  and  _220
REMARK   94  A    between atoms: _220  and  _221
REMARK   95  A    between atoms: _221  and  _222
REMARK   96  A    between atoms: _222  and  _223
REMARK   97  A    between atoms: _232  and  _234
REMARK   98  A    between atoms: _234  and  _235
REMARK   99  A    between atoms: _234  and  _237
REMARK  100  A    between atoms: _237  and  _238
REMARK  101  A    between atoms: _244  and  _246
REMARK  102  A    between atoms: _246  and  _247
REMARK  103  A    between atoms: _246  and  _249
REMARK  104  A    between atoms: _249  and  _250
REMARK  105  A    between atoms: _250  and  _251
REMARK  106  A    between atoms: _254  and  _256
REMARK  107  A    between atoms: _256  and  _257
REMARK  108  A    between atoms: _259  and  _261
REMARK  109  A    between atoms: _261  and  _262
REMARK  110  A    between atoms: _261  and  _264
REMARK  111  A    between atoms: _264  and  _265
REMARK  112  A    between atoms: _268  and  _270
REMARK  113  A    between atoms: _270  and  _271
REMARK  114  A    between atoms: _274  and  _276
REMARK  115  A    between atoms: _276  and  _277
REMARK  116  A    between atoms: _276  and  _279
REMARK  117  A    between atoms: _279  and  _280
REMARK  118  A    between atoms: _280  and  _281
REMARK  119  A    between atoms: _284  and  _286
REMARK  120  A    between atoms: _286  and  _287
REMARK  121  A    between atoms: _286  and  _289
REMARK  122  A    between atoms: _289  and  _290
REMARK  123  A    between atoms: _295  and  _297
REMARK  124  A    between atoms: _297  and  _298
REMARK  125  A    between atoms: _300  and  _302
REMARK  126  A    between atoms: _302  and  _303
REMARK  127  A    between atoms: _302  and  _305
REMARK  128  A    between atoms: _305  and  _306
REMARK  129  A    between atoms: _309  and  _311
REMARK  130  A    between atoms: _311  and  _312
REMARK  131  A    between atoms: _311  and  _314
REMARK  132  A    between atoms: _314  and  _315
REMARK  133  A    between atoms: _318  and  _320
REMARK  134  A    between atoms: _320  and  _321
REMARK  135  A    between atoms: _320  and  _323
REMARK  136  A    between atoms: _323  and  _324
REMARK  137  A    between atoms: _329  and  _331
REMARK  138  A    between atoms: _331  and  _332
REMARK  139  A    between atoms: _331  and  _334
REMARK  140  A    between atoms: _334  and  _335
REMARK  141  A    between atoms: _335  and  _336
REMARK  142  A    between atoms: _341  and  _343
REMARK  143  A    between atoms: _343  and  _344
REMARK  144  A    between atoms: _343  and  _346
REMARK  145  A    between atoms: _346  and  _347
REMARK  146  A    between atoms: _347  and  _348
REMARK  147  A    between atoms: _348  and  _349
REMARK  148  A    between atoms: _358  and  _360
REMARK  149  A    between atoms: _360  and  _361
REMARK  150  A    between atoms: _360  and  _363
REMARK  151  A    between atoms: _363  and  _364
REMARK  152  A    between atoms: _369  and  _370
REMARK  153  A    between atoms: _372  and  _374
REMARK  154  A    between atoms: _374  and  _375
REMARK  155  A    between atoms: _374  and  _377
REMARK  156  A    between atoms: _377  and  _378
REMARK  157  A    between atoms: _381  and  _383
REMARK  158  A    between atoms: _383  and  _384
REMARK  159  A    between atoms: _383  and  _386
REMARK  160  A    between atoms: _386  and  _387
REMARK  161  A    between atoms: _389  and  _391
REMARK  162  A    between atoms: _391  and  _392
REMARK  163  A    between atoms: _391  and  _394
REMARK  164  A    between atoms: _394  and  _395
REMARK  165  A    between atoms: _400  and  _401
REMARK  166  A    between atoms: _403  and  _405
REMARK  167  A    between atoms: _405  and  _406
REMARK  168  A    between atoms: _405  and  _408
REMARK  169  A    between atoms: _408  and  _409
REMARK  170  A    between atoms: _412  and  _414
REMARK  171  A    between atoms: _414  and  _415
REMARK  172  A    between atoms: _414  and  _417
REMARK  173  A    between atoms: _417  and  _418
REMARK  174  A    between atoms: _424  and  _426
REMARK  175  A    between atoms: _426  and  _427
REMARK  176  A    between atoms: _429  and  _431
REMARK  177  A    between atoms: _431  and  _432
REMARK  178  A    between atoms: _431  and  _434
REMARK  179  A    between atoms: _434  and  _435
REMARK  180  A    between atoms: _438  and  _440
REMARK  181  A    between atoms: _440  and  _441
REMARK  182  A    between atoms: _440  and  _443
REMARK  183  A    between atoms: _446  and  _448
REMARK  184  A    between atoms: _448  and  _449
REMARK  185  A    between atoms: _452  and  _454
REMARK  186  A    between atoms: _454  and  _455
REMARK  187  A    between atoms: _454  and  _457
REMARK  188  A    between atoms: _457  and  _458
REMARK  189  A    between atoms: _463  and  _464
REMARK  190  A    between atoms: _466  and  _468
REMARK  191  A    between atoms: _468  and  _469
REMARK  192  A    between atoms: _468  and  _471
REMARK  193  A    between atoms: _471  and  _472
REMARK  194  A    between atoms: _477  and  _478
REMARK  195  A    between atoms: _480  and  _482
REMARK  196  A    between atoms: _482  and  _483
REMARK  197  A    between atoms: _485  and  _487
REMARK  198  A    between atoms: _487  and  _488
REMARK  199  A    between atoms: _487  and  _490
REMARK  200  A    between atoms: _490  and  _491
REMARK  201  A    between atoms: _491  and  _492
REMARK  202  A    between atoms: _492  and  _493
REMARK  203  A    between atoms: _493  and  _494
REMARK  204  A    between atoms: _498  and  _500
REMARK  205  A    between atoms: _500  and  _501
REMARK  206  A    between atoms: _503  and  _505
REMARK  207  A    between atoms: _505  and  _506
REMARK  208  A    between atoms: _505  and  _508
REMARK  209  A    between atoms: _508  and  _509
REMARK  210  A    between atoms: _512  and  _514
REMARK  211  A    between atoms: _514  and  _515
REMARK                            x       y       z     vdW  Elec       q    Type
REMARK                         _______ _______ _______ _____ _____    ______ ____
ROOT
ATOM      1  O   HOH     1      -1.617   7.872  35.440  0.00  0.00    +0.000 OA
ENDROOT
TORSDOF 0
REMARK  Name = ../refined-set-2016/2y7i/2y7i_pocket.pdb
REMARK  211 active torsions:
REMARK  status: ('A' for Active; 'I' for Inactive)
REMARK    1  A    between atoms: _1  and  _3
REMARK    2  A    between atoms: _3  and  _4
REMARK    3  A    between atoms: _3  and  _6
REMARK    4  A    between atoms: _6  and  _7
REMARK    5  A    between atoms: _10  and  _12
REMARK    6  A    between atoms: _12  and  _13
REMARK    7  A    between atoms: _12  and  _15
REMARK    8  A    between atoms: _15  and  _16
REMARK    9  A    between atoms: _18  and  _20
REMARK   10  A    between atoms: _20  and  _21
REMARK   11  A    between atoms: _24  and  _26
REMARK   12  A    between atoms: _26  and  _27
REMARK   13  A    between atoms: _26  and  _29
REMARK   14  A    between atoms: _29  and  _30
REMARK   15  A    between atoms: _33  and  _35
REMARK   16  A    between atoms: _35  and  _36
REMARK   17  A    between atoms: _35  and  _38
REMARK   18  A    between atoms: _38  and  _39
REMARK   19  A    between atoms: _44  and  _45
REMARK   20  A    between atoms: _47  and  _49
REMARK   21  A    between atoms: _49  and  _50
REMARK   22  A    between atoms: _53  and  _55
REMARK   23  A    between atoms: _55  and  _56
REMARK   24  A    between atoms: _55  and  _58
REMARK   25  A    between atoms: _58  and  _59
REMARK   26  A    between atoms: _64  and  _65
REMARK   27  A    between atoms: _67  and  _69
REMARK   28  A    between atoms: _69  and  _70
REMARK   29  A    between atoms: _69  and  _72
REMARK   30  A    between atoms: _72  and  _73
REMARK   31  A    between atoms: _73  and  _74
REMARK   32  A    between atoms: _77  and  _79
REMARK   33  A    between atoms: _79  and  _80
REMARK   34  A    between atoms: _79  and  _82
REMARK   35  A    between atoms: _82  and  _83
REMARK   36  A    between atoms: _89  and  _91
REMARK   37  A    between atoms: _91  and  _92
REMARK   38  A    between atoms: _91  and  _94
REMARK   39  A    between atoms: _94  and  _95
REMARK   40  A    between atoms: _98  and  _100
REMARK   41  A    between atoms: _100  and  _101
REMARK   42  A    between atoms: _100  and  _103
REMARK   43  A    between atoms: _103  and  _104
REMARK   44  A    between atoms: _109  and  _111
REMARK   45  A    between atoms: _111  and  _112
REMARK   46  A    between atoms: _111  and  _114
REMARK   47  A    between atoms: _114  and  _115
REMARK   48  A    between atoms: _115  and  _116
REMARK   49  A    between atoms: _121  and  _123
REMARK   50  A    between atoms: _123  and  _124
REMARK   51  A    between atoms: _123  and  _126
REMARK   52  A    between atoms: _126  and  _127
REMARK   53  A    between atoms: _129  and  _131
REMARK   54  A    between atoms: _131  and  _132
REMARK   55  A    between atoms: _131  and  _134
REMARK   56  A    between atoms: _134  and  _135
REMARK   57  A    between atoms: _141  and  _143
REMARK   58  A    between atoms: _143  and  _144
REMARK   59  A    between atoms: _143  and  _146
REMARK   60  A    between atoms: _146  and  _147
REMARK   61  A    between atoms: _150  and  _152
REMARK   62  A    between atoms: _152  and  _153
REMARK   63  A    between atoms: _152  and  _155
REMARK   64  A    between atoms: _155  and  _156
REMARK   65  A    between atoms: _159  and  _161
REMARK   66  A    between atoms: _161  and  _162
REMARK   67  A    between atoms: _161  and  _164
REMARK   68  A    between atoms: _164  and  _165
REMARK   69  A    between atoms: _168  and  _170
REMARK   70  A    between atoms: _170  and  _171
REMARK   71  A    between atoms: _174  and  _176
REMARK   72  A    between atoms: _176  and  _177
REMARK   73  A    between atoms: _179  and  _181
REMARK   74  A    between atoms: _181  and  _182
REMARK   75  A    between atoms: _181  and  _184
REMARK   76  A    between atoms: _184  and  _185
REMARK   77  A    between atoms: _185  and  _186
REMARK   78  A    between atoms: _188  and  _190
REMARK   79  A    between atoms: _190  and  _191
REMARK   80  A    between atoms: _190  and  _193
REMARK   81  A    between atoms: _193  and  _194
REMARK   82  A    between atoms: _197  and  _199
REMARK   83  A    between atoms: _199  and  _200
REMARK   84  A    between atoms: _199  and  _202
REMARK   85  A    between atoms: _202  and  _203
REMARK   86  A    between atoms: _203  and  _204
REMARK   87  A    between atoms: _206  and  _208
REMARK   88  A    between atoms: _208  and  _209
REMARK   89  A    between atoms: _208  and  _211
REMARK   90  A    between atoms: _211  and  _212
REMARK   91  A    between atoms: _215  and  _217
REMARK   92  A    between atoms: _217  and  _218
REMARK   93  A    between atoms: _217  and  _220
REMARK   94  A    between atoms: _220  and  _221
REMARK   95  A    between atoms: _221  and  _222
REMARK   96  A    between atoms: _222  and  _223
REMARK   97  A    between atoms: _232  and  _234
REMARK   98  A    between atoms: _234  and  _235
REMARK   99  A    between atoms: _234  and  _237
REMARK  100  A    between atoms: _237  and  _238
REMARK  101  A    between atoms: _244  and  _246
REMARK  102  A    between atoms: _246  and  _247
REMARK  103  A    between atoms: _246  and  _249
REMARK  104  A    between atoms: _249  and  _250
REMARK  105  A    between atoms: _250  and  _251
REMARK  106  A    between atoms: _254  and  _256
REMARK  107  A    between atoms: _256  and  _257
REMARK  108  A    between atoms: _259  and  _261
REMARK  109  A    between atoms: _261  and  _262
REMARK  110  A    between atoms: _261  and  _264
REMARK  111  A    between atoms: _264  and  _265
REMARK  112  A    between atoms: _268  and  _270
REMARK  113  A    between atoms: _270  and  _271
REMARK  114  A    between atoms: _274  and  _276
REMARK  115  A    between atoms: _276  and  _277
REMARK  116  A    between atoms: _276  and  _279
REMARK  117  A    between atoms: _279  and  _280
REMARK  118  A    between atoms: _280  and  _281
REMARK  119  A    between atoms: _284  and  _286
REMARK  120  A    between atoms: _286  and  _287
REMARK  121  A    between atoms: _286  and  _289
REMARK  122  A    between atoms: _289  and  _290
REMARK  123  A    between atoms: _295  and  _297
REMARK  124  A    between atoms: _297  and  _298
REMARK  125  A    between atoms: _300  and  _302
REMARK  126  A    between atoms: _302  and  _303
REMARK  127  A    between atoms: _302  and  _305
REMARK  128  A    between atoms: _305  and  _306
REMARK  129  A    between atoms: _309  and  _311
REMARK  130  A    between atoms: _311  and  _312
REMARK  131  A    between atoms: _311  and  _314
REMARK  132  A    between atoms: _314  and  _315
REMARK  133  A    between atoms: _318  and  _320
REMARK  134  A    between atoms: _320  and  _321
REMARK  135  A    between atoms: _320  and  _323
REMARK  136  A    between atoms: _323  and  _324
REMARK  137  A    between atoms: _329  and  _331
REMARK  138  A    between atoms: _331  and  _332
REMARK  139  A    between atoms: _331  and  _334
REMARK  140  A    between atoms: _334  and  _335
REMARK  141  A    between atoms: _335  and  _336
REMARK  142  A    between atoms: _341  and  _343
REMARK  143  A    between atoms: _343  and  _344
REMARK  144  A    between atoms: _343  and  _346
REMARK  145  A    between atoms: _346  and  _347
REMARK  146  A    between atoms: _347  and  _348
REMARK  147  A    between atoms: _348  and  _349
REMARK  148  A    between atoms: _358  and  _360
REMARK  149  A    between atoms: _360  and  _361
REMARK  150  A    between atoms: _360  and  _363
REMARK  151  A    between atoms: _363  and  _364
REMARK  152  A    between atoms: _369  and  _370
REMARK  153  A    between atoms: _372  and  _374
REMARK  154  A    between atoms: _374  and  _375
REMARK  155  A    between atoms: _374  and  _377
REMARK  156  A    between atoms: _377  and  _378
REMARK  157  A    between atoms: _381  and  _383
REMARK  158  A    between atoms: _383  and  _384
REMARK  159  A    between atoms: _383  and  _386
REMARK  160  A    between atoms: _386  and  _387
REMARK  161  A    between atoms: _389  and  _391
REMARK  162  A    between atoms: _391  and  _392
REMARK  163  A    between atoms: _391  and  _394
REMARK  164  A    between atoms: _394  and  _395
REMARK  165  A    between atoms: _400  and  _401
REMARK  166  A    between atoms: _403  and  _405
REMARK  167  A    between atoms: _405  and  _406
REMARK  168  A    between atoms: _405  and  _408
REMARK  169  A    between atoms: _408  and  _409
REMARK  170  A    between atoms: _412  and  _414
REMARK  171  A    between atoms: _414  and  _415
REMARK  172  A    between atoms: _414  and  _417
REMARK  173  A    between atoms: _417  and  _418
REMARK  174  A    between atoms: _424  and  _426
REMARK  175  A    between atoms: _426  and  _427
REMARK  176  A    between atoms: _429  and  _431
REMARK  177  A    between atoms: _431  and  _432
REMARK  178  A    between atoms: _431  and  _434
REMARK  179  A    between atoms: _434  and  _435
REMARK  180  A    between atoms: _438  and  _440
REMARK  181  A    between atoms: _440  and  _441
REMARK  182  A    between atoms: _440  and  _443
REMARK  183  A    between atoms: _446  and  _448
REMARK  184  A    between atoms: _448  and  _449
REMARK  185  A    between atoms: _452  and  _454
REMARK  186  A    between atoms: _454  and  _455
REMARK  187  A    between atoms: _454  and  _457
REMARK  188  A    between atoms: _457  and  _458
REMARK  189  A    between atoms: _463  and  _464
REMARK  190  A    between atoms: _466  and  _468
REMARK  191  A    between atoms: _468  and  _469
REMARK  192  A    between atoms: _468  and  _471
REMARK  193  A    between atoms: _471  and  _472
REMARK  194  A    between atoms: _477  and  _478
REMARK  195  A    between atoms: _480  and  _482
REMARK  196  A    between atoms: _482  and  _483
REMARK  197  A    between atoms: _485  and  _487
REMARK  198  A    between atoms: _487  and  _488
REMARK  199  A    between atoms: _487  and  _490
REMARK  200  A    between atoms: _490  and  _491
REMARK  201  A    between atoms: _491  and  _492
REMARK  202  A    between atoms: _492  and  _493
REMARK  203  A    between atoms: _493  and  _494
REMARK  204  A    between atoms: _498  and  _500
REMARK  205  A    between atoms: _500  and  _501
REMARK  206  A    between atoms: _503  and  _505
REMARK  207  A    between atoms: _505  and  _506
REMARK  208  A    between atoms: _505  and  _508
REMARK  209  A    between atoms: _508  and  _509
REMARK  210  A    between atoms: _512  and  _514
REMARK  211  A    between atoms: _514  and  _515
REMARK                            x       y       z     vdW  Elec       q    Type
REMARK                         _______ _______ _______ _____ _____    ______ ____
ROOT
ATOM      1  O   HOH     1       2.770   8.332  38.310  0.00  0.00    +0.000 OA
ENDROOT
TORSDOF 0
REMARK  Name = ../refined-set-2016/2y7i/2y7i_pocket.pdb
REMARK  211 active torsions:
REMARK  status: ('A' for Active; 'I' for Inactive)
REMARK    1  A    between atoms: _1  and  _3
REMARK    2  A    between atoms: _3  and  _4
REMARK    3  A    between atoms: _3  and  _6
REMARK    4  A    between atoms: _6  and  _7
REMARK    5  A    between atoms: _10  and  _12
REMARK    6  A    between atoms: _12  and  _13
REMARK    7  A    between atoms: _12  and  _15
REMARK    8  A    between atoms: _15  and  _16
REMARK    9  A    between atoms: _18  and  _20
REMARK   10  A    between atoms: _20  and  _21
REMARK   11  A    between atoms: _24  and  _26
REMARK   12  A    between atoms: _26  and  _27
REMARK   13  A    between atoms: _26  and  _29
REMARK   14  A    between atoms: _29  and  _30
REMARK   15  A    between atoms: _33  and  _35
REMARK   16  A    between atoms: _35  and  _36
REMARK   17  A    between atoms: _35  and  _38
REMARK   18  A    between atoms: _38  and  _39
REMARK   19  A    between atoms: _44  and  _45
REMARK   20  A    between atoms: _47  and  _49
REMARK   21  A    between atoms: _49  and  _50
REMARK   22  A    between atoms: _53  and  _55
REMARK   23  A    between atoms: _55  and  _56
REMARK   24  A    between atoms: _55  and  _58
REMARK   25  A    between atoms: _58  and  _59
REMARK   26  A    between atoms: _64  and  _65
REMARK   27  A    between atoms: _67  and  _69
REMARK   28  A    between atoms: _69  and  _70
REMARK   29  A    between atoms: _69  and  _72
REMARK   30  A    between atoms: _72  and  _73
REMARK   31  A    between atoms: _73  and  _74
REMARK   32  A    between atoms: _77  and  _79
REMARK   33  A    between atoms: _79  and  _80
REMARK   34  A    between atoms: _79  and  _82
REMARK   35  A    between atoms: _82  and  _83
REMARK   36  A    between atoms: _89  and  _91
REMARK   37  A    between atoms: _91  and  _92
REMARK   38  A    between atoms: _91  and  _94
REMARK   39  A    between atoms: _94  and  _95
REMARK   40  A    between atoms: _98  and  _100
REMARK   41  A    between atoms: _100  and  _101
REMARK   42  A    between atoms: _100  and  _103
REMARK   43  A    between atoms: _103  and  _104
REMARK   44  A    between atoms: _109  and  _111
REMARK   45  A    between atoms: _111  and  _112
REMARK   46  A    between atoms: _111  and  _114
REMARK   47  A    between atoms: _114  and  _115
REMARK   48  A    between atoms: _115  and  _116
REMARK   49  A    between atoms: _121  and  _123
REMARK   50  A    between atoms: _123  and  _124
REMARK   51  A    between atoms: _123  and  _126
REMARK   52  A    between atoms: _126  and  _127
REMARK   53  A    between atoms: _129  and  _131
REMARK   54  A    between atoms: _131  and  _132
REMARK   55  A    between atoms: _131  and  _134
REMARK   56  A    between atoms: _134  and  _135
REMARK   57  A    between atoms: _141  and  _143
REMARK   58  A    between atoms: _143  and  _144
REMARK   59  A    between atoms: _143  and  _146
REMARK   60  A    between atoms: _146  and  _147
REMARK   61  A    between atoms: _150  and  _152
REMARK   62  A    between atoms: _152  and  _153
REMARK   63  A    between atoms: _152  and  _155
REMARK   64  A    between atoms: _155  and  _156
REMARK   65  A    between atoms: _159  and  _161
REMARK   66  A    between atoms: _161  and  _162
REMARK   67  A    between atoms: _161  and  _164
REMARK   68  A    between atoms: _164  and  _165
REMARK   69  A    between atoms: _168  and  _170
REMARK   70  A    between atoms: _170  and  _171
REMARK   71  A    between atoms: _174  and  _176
REMARK   72  A    between atoms: _176  and  _177
REMARK   73  A    between atoms: _179  and  _181
REMARK   74  A    between atoms: _181  and  _182
REMARK   75  A    between atoms: _181  and  _184
REMARK   76  A    between atoms: _184  and  _185
REMARK   77  A    between atoms: _185  and  _186
REMARK   78  A    between atoms: _188  and  _190
REMARK   79  A    between atoms: _190  and  _191
REMARK   80  A    between atoms: _190  and  _193
REMARK   81  A    between atoms: _193  and  _194
REMARK   82  A    between atoms: _197  and  _199
REMARK   83  A    between atoms: _199  and  _200
REMARK   84  A    between atoms: _199  and  _202
REMARK   85  A    between atoms: _202  and  _203
REMARK   86  A    between atoms: _203  and  _204
REMARK   87  A    between atoms: _206  and  _208
REMARK   88  A    between atoms: _208  and  _209
REMARK   89  A    between atoms: _208  and  _211
REMARK   90  A    between atoms: _211  and  _212
REMARK   91  A    between atoms: _215  and  _217
REMARK   92  A    between atoms: _217  and  _218
REMARK   93  A    between atoms: _217  and  _220
REMARK   94  A    between atoms: _220  and  _221
REMARK   95  A    between atoms: _221  and  _222
REMARK   96  A    between atoms: _222  and  _223
REMARK   97  A    between atoms: _232  and  _234
REMARK   98  A    between atoms: _234  and  _235
REMARK   99  A    between atoms: _234  and  _237
REMARK  100  A    between atoms: _237  and  _238
REMARK  101  A    between atoms: _244  and  _246
REMARK  102  A    between atoms: _246  and  _247
REMARK  103  A    between atoms: _246  and  _249
REMARK  104  A    between atoms: _249  and  _250
REMARK  105  A    between atoms: _250  and  _251
REMARK  106  A    between atoms: _254  and  _256
REMARK  107  A    between atoms: _256  and  _257
REMARK  108  A    between atoms: _259  and  _261
REMARK  109  A    between atoms: _261  and  _262
REMARK  110  A    between atoms: _261  and  _264
REMARK  111  A    between atoms: _264  and  _265
REMARK  112  A    between atoms: _268  and  _270
REMARK  113  A    between atoms: _270  and  _271
REMARK  114  A    between atoms: _274  and  _276
REMARK  115  A    between atoms: _276  and  _277
REMARK  116  A    between atoms: _276  and  _279
REMARK  117  A    between atoms: _279  and  _280
REMARK  118  A    between atoms: _280  and  _281
REMARK  119  A    between atoms: _284  and  _286
REMARK  120  A    between atoms: _286  and  _287
REMARK  121  A    between atoms: _286  and  _289
REMARK  122  A    between atoms: _289  and  _290
REMARK  123  A    between atoms: _295  and  _297
REMARK  124  A    between atoms: _297  and  _298
REMARK  125  A    between atoms: _300  and  _302
REMARK  126  A    between atoms: _302  and  _303
REMARK  127  A    between atoms: _302  and  _305
REMARK  128  A    between atoms: _305  and  _306
REMARK  129  A    between atoms: _309  and  _311
REMARK  130  A    between atoms: _311  and  _312
REMARK  131  A    between atoms: _311  and  _314
REMARK  132  A    between atoms: _314  and  _315
REMARK  133  A    between atoms: _318  and  _320
REMARK  134  A    between atoms: _320  and  _321
REMARK  135  A    between atoms: _320  and  _323
REMARK  136  A    between atoms: _323  and  _324
REMARK  137  A    between atoms: _329  and  _331
REMARK  138  A    between atoms: _331  and  _332
REMARK  139  A    between atoms: _331  and  _334
REMARK  140  A    between atoms: _334  and  _335
REMARK  141  A    between atoms: _335  and  _336
REMARK  142  A    between atoms: _341  and  _343
REMARK  143  A    between atoms: _343  and  _344
REMARK  144  A    between atoms: _343  and  _346
REMARK  145  A    between atoms: _346  and  _347
REMARK  146  A    between atoms: _347  and  _348
REMARK  147  A    between atoms: _348  and  _349
REMARK  148  A    between atoms: _358  and  _360
REMARK  149  A    between atoms: _360  and  _361
REMARK  150  A    between atoms: _360  and  _363
REMARK  151  A    between atoms: _363  and  _364
REMARK  152  A    between atoms: _369  and  _370
REMARK  153  A    between atoms: _372  and  _374
REMARK  154  A    between atoms: _374  and  _375
REMARK  155  A    between atoms: _374  and  _377
REMARK  156  A    between atoms: _377  and  _378
REMARK  157  A    between atoms: _381  and  _383
REMARK  158  A    between atoms: _383  and  _384
REMARK  159  A    between atoms: _383  and  _386
REMARK  160  A    between atoms: _386  and  _387
REMARK  161  A    between atoms: _389  and  _391
REMARK  162  A    between atoms: _391  and  _392
REMARK  163  A    between atoms: _391  and  _394
REMARK  164  A    between atoms: _394  and  _395
REMARK  165  A    between atoms: _400  and  _401
REMARK  166  A    between atoms: _403  and  _405
REMARK  167  A    between atoms: _405  and  _406
REMARK  168  A    between atoms: _405  and  _408
REMARK  169  A    between atoms: _408  and  _409
REMARK  170  A    between atoms: _412  and  _414
REMARK  171  A    between atoms: _414  and  _415
REMARK  172  A    between atoms: _414  and  _417
REMARK  173  A    between atoms: _417  and  _418
REMARK  174  A    between atoms: _424  and  _426
REMARK  175  A    between atoms: _426  and  _427
REMARK  176  A    between atoms: _429  and  _431
REMARK  177  A    between atoms: _431  and  _432
REMARK  178  A    between atoms: _431  and  _434
REMARK  179  A    between atoms: _434  and  _435
REMARK  180  A    between atoms: _438  and  _440
REMARK  181  A    between atoms: _440  and  _441
REMARK  182  A    between atoms: _440  and  _443
REMARK  183  A    between atoms: _446  and  _448
REMARK  184  A    between atoms: _448  and  _449
REMARK  185  A    between atoms: _452  and  _454
REMARK  186  A    between atoms: _454  and  _455
REMARK  187  A    between atoms: _454  and  _457
REMARK  188  A    between atoms: _457  and  _458
REMARK  189  A    between atoms: _463  and  _464
REMARK  190  A    between atoms: _466  and  _468
REMARK  191  A    between atoms: _468  and  _469
REMARK  192  A    between atoms: _468  and  _471
REMARK  193  A    between atoms: _471  and  _472
REMARK  194  A    between atoms: _477  and  _478
REMARK  195  A    between atoms: _480  and  _482
REMARK  196  A    between atoms: _482  and  _483
REMARK  197  A    between atoms: _485  and  _487
REMARK  198  A    between atoms: _487  and  _488
REMARK  199  A    between atoms: _487  and  _490
REMARK  200  A    between atoms: _490  and  _491
REMARK  201  A    between atoms: _491  and  _492
REMARK  202  A    between atoms: _492  and  _493
REMARK  203  A    between atoms: _493  and  _494
REMARK  204  A    between atoms: _498  and  _500
REMARK  205  A    between atoms: _500  and  _501
REMARK  206  A    between atoms: _503  and  _505
REMARK  207  A    between atoms: _505  and  _506
REMARK  208  A    between atoms: _505  and  _508
REMARK  209  A    between atoms: _508  and  _509
REMARK  210  A    between atoms: _512  and  _514
REMARK  211  A    between atoms: _514  and  _515
REMARK                            x       y       z     vdW  Elec       q    Type
REMARK                         _______ _______ _______ _____ _____    ______ ____
ROOT
ATOM      1  O   HOH     1       6.590   0.471  30.905  0.00  0.00    +0.000 OA
ENDROOT
TORSDOF 0
REMARK  Name = ../refined-set-2016/2y7i/2y7i_pocket.pdb
REMARK  211 active torsions:
REMARK  status: ('A' for Active; 'I' for Inactive)
REMARK    1  A    between atoms: _1  and  _3
REMARK    2  A    between atoms: _3  and  _4
REMARK    3  A    between atoms: _3  and  _6
REMARK    4  A    between atoms: _6  and  _7
REMARK    5  A    between atoms: _10  and  _12
REMARK    6  A    between atoms: _12  and  _13
REMARK    7  A    between atoms: _12  and  _15
REMARK    8  A    between atoms: _15  and  _16
REMARK    9  A    between atoms: _18  and  _20
REMARK   10  A    between atoms: _20  and  _21
REMARK   11  A    between atoms: _24  and  _26
REMARK   12  A    between atoms: _26  and  _27
REMARK   13  A    between atoms: _26  and  _29
REMARK   14  A    between atoms: _29  and  _30
REMARK   15  A    between atoms: _33  and  _35
REMARK   16  A    between atoms: _35  and  _36
REMARK   17  A    between atoms: _35  and  _38
REMARK   18  A    between atoms: _38  and  _39
REMARK   19  A    between atoms: _44  and  _45
REMARK   20  A    between atoms: _47  and  _49
REMARK   21  A    between atoms: _49  and  _50
REMARK   22  A    between atoms: _53  and  _55
REMARK   23  A    between atoms: _55  and  _56
REMARK   24  A    between atoms: _55  and  _58
REMARK   25  A    between atoms: _58  and  _59
REMARK   26  A    between atoms: _64  and  _65
REMARK   27  A    between atoms: _67  and  _69
REMARK   28  A    between atoms: _69  and  _70
REMARK   29  A    between atoms: _69  and  _72
REMARK   30  A    between atoms: _72  and  _73
REMARK   31  A    between atoms: _73  and  _74
REMARK   32  A    between atoms: _77  and  _79
REMARK   33  A    between atoms: _79  and  _80
REMARK   34  A    between atoms: _79  and  _82
REMARK   35  A    between atoms: _82  and  _83
REMARK   36  A    between atoms: _89  and  _91
REMARK   37  A    between atoms: _91  and  _92
REMARK   38  A    between atoms: _91  and  _94
REMARK   39  A    between atoms: _94  and  _95
REMARK   40  A    between atoms: _98  and  _100
REMARK   41  A    between atoms: _100  and  _101
REMARK   42  A    between atoms: _100  and  _103
REMARK   43  A    between atoms: _103  and  _104
REMARK   44  A    between atoms: _109  and  _111
REMARK   45  A    between atoms: _111  and  _112
REMARK   46  A    between atoms: _111  and  _114
REMARK   47  A    between atoms: _114  and  _115
REMARK   48  A    between atoms: _115  and  _116
REMARK   49  A    between atoms: _121  and  _123
REMARK   50  A    between atoms: _123  and  _124
REMARK   51  A    between atoms: _123  and  _126
REMARK   52  A    between atoms: _126  and  _127
REMARK   53  A    between atoms: _129  and  _131
REMARK   54  A    between atoms: _131  and  _132
REMARK   55  A    between atoms: _131  and  _134
REMARK   56  A    between atoms: _134  and  _135
REMARK   57  A    between atoms: _141  and  _143
REMARK   58  A    between atoms: _143  and  _144
REMARK   59  A    between atoms: _143  and  _146
REMARK   60  A    between atoms: _146  and  _147
REMARK   61  A    between atoms: _150  and  _152
REMARK   62  A    between atoms: _152  and  _153
REMARK   63  A    between atoms: _152  and  _155
REMARK   64  A    between atoms: _155  and  _156
REMARK   65  A    between atoms: _159  and  _161
REMARK   66  A    between atoms: _161  and  _162
REMARK   67  A    between atoms: _161  and  _164
REMARK   68  A    between atoms: _164  and  _165
REMARK   69  A    between atoms: _168  and  _170
REMARK   70  A    between atoms: _170  and  _171
REMARK   71  A    between atoms: _174  and  _176
REMARK   72  A    between atoms: _176  and  _177
REMARK   73  A    between atoms: _179  and  _181
REMARK   74  A    between atoms: _181  and  _182
REMARK   75  A    between atoms: _181  and  _184
REMARK   76  A    between atoms: _184  and  _185
REMARK   77  A    between atoms: _185  and  _186
REMARK   78  A    between atoms: _188  and  _190
REMARK   79  A    between atoms: _190  and  _191
REMARK   80  A    between atoms: _190  and  _193
REMARK   81  A    between atoms: _193  and  _194
REMARK   82  A    between atoms: _197  and  _199
REMARK   83  A    between atoms: _199  and  _200
REMARK   84  A    between atoms: _199  and  _202
REMARK   85  A    between atoms: _202  and  _203
REMARK   86  A    between atoms: _203  and  _204
REMARK   87  A    between atoms: _206  and  _208
REMARK   88  A    between atoms: _208  and  _209
REMARK   89  A    between atoms: _208  and  _211
REMARK   90  A    between atoms: _211  and  _212
REMARK   91  A    between atoms: _215  and  _217
REMARK   92  A    between atoms: _217  and  _218
REMARK   93  A    between atoms: _217  and  _220
REMARK   94  A    between atoms: _220  and  _221
REMARK   95  A    between atoms: _221  and  _222
REMARK   96  A    between atoms: _222  and  _223
REMARK   97  A    between atoms: _232  and  _234
REMARK   98  A    between atoms: _234  and  _235
REMARK   99  A    between atoms: _234  and  _237
REMARK  100  A    between atoms: _237  and  _238
REMARK  101  A    between atoms: _244  and  _246
REMARK  102  A    between atoms: _246  and  _247
REMARK  103  A    between atoms: _246  and  _249
REMARK  104  A    between atoms: _249  and  _250
REMARK  105  A    between atoms: _250  and  _251
REMARK  106  A    between atoms: _254  and  _256
REMARK  107  A    between atoms: _256  and  _257
REMARK  108  A    between atoms: _259  and  _261
REMARK  109  A    between atoms: _261  and  _262
REMARK  110  A    between atoms: _261  and  _264
REMARK  111  A    between atoms: _264  and  _265
REMARK  112  A    between atoms: _268  and  _270
REMARK  113  A    between atoms: _270  and  _271
REMARK  114  A    between atoms: _274  and  _276
REMARK  115  A    between atoms: _276  and  _277
REMARK  116  A    between atoms: _276  and  _279
REMARK  117  A    between atoms: _279  and  _280
REMARK  118  A    between atoms: _280  and  _281
REMARK  119  A    between atoms: _284  and  _286
REMARK  120  A    between atoms: _286  and  _287
REMARK  121  A    between atoms: _286  and  _289
REMARK  122  A    between atoms: _289  and  _290
REMARK  123  A    between atoms: _295  and  _297
REMARK  124  A    between atoms: _297  and  _298
REMARK  125  A    between atoms: _300  and  _302
REMARK  126  A    between atoms: _302  and  _303
REMARK  127  A    between atoms: _302  and  _305
REMARK  128  A    between atoms: _305  and  _306
REMARK  129  A    between atoms: _309  and  _311
REMARK  130  A    between atoms: _311  and  _312
REMARK  131  A    between atoms: _311  and  _314
REMARK  132  A    between atoms: _314  and  _315
REMARK  133  A    between atoms: _318  and  _320
REMARK  134  A    between atoms: _320  and  _321
REMARK  135  A    between atoms: _320  and  _323
REMARK  136  A    between atoms: _323  and  _324
REMARK  137  A    between atoms: _329  and  _331
REMARK  138  A    between atoms: _331  and  _332
REMARK  139  A    between atoms: _331  and  _334
REMARK  140  A    between atoms: _334  and  _335
REMARK  141  A    between atoms: _335  and  _336
REMARK  142  A    between atoms: _341  and  _343
REMARK  143  A    between atoms: _343  and  _344
REMARK  144  A    between atoms: _343  and  _346
REMARK  145  A    between atoms: _346  and  _347
REMARK  146  A    between atoms: _347  and  _348
REMARK  147  A    between atoms: _348  and  _349
REMARK  148  A    between atoms: _358  and  _360
REMARK  149  A    between atoms: _360  and  _361
REMARK  150  A    between atoms: _360  and  _363
REMARK  151  A    between atoms: _363  and  _364
REMARK  152  A    between atoms: _369  and  _370
REMARK  153  A    between atoms: _372  and  _374
REMARK  154  A    between atoms: _374  and  _375
REMARK  155  A    between atoms: _374  and  _377
REMARK  156  A    between atoms: _377  and  _378
REMARK  157  A    between atoms: _381  and  _383
REMARK  158  A    between atoms: _383  and  _384
REMARK  159  A    between atoms: _383  and  _386
REMARK  160  A    between atoms: _386  and  _387
REMARK  161  A    between atoms: _389  and  _391
REMARK  162  A    between atoms: _391  and  _392
REMARK  163  A    between atoms: _391  and  _394
REMARK  164  A    between atoms: _394  and  _395
REMARK  165  A    between atoms: _400  and  _401
REMARK  166  A    between atoms: _403  and  _405
REMARK  167  A    between atoms: _405  and  _406
REMARK  168  A    between atoms: _405  and  _408
REMARK  169  A    between atoms: _408  and  _409
REMARK  170  A    between atoms: _412  and  _414
REMARK  171  A    between atoms: _414  and  _415
REMARK  172  A    between atoms: _414  and  _417
REMARK  173  A    between atoms: _417  and  _418
REMARK  174  A    between atoms: _424  and  _426
REMARK  175  A    between atoms: _426  and  _427
REMARK  176  A    between atoms: _429  and  _431
REMARK  177  A    between atoms: _431  and  _432
REMARK  178  A    between atoms: _431  and  _434
REMARK  179  A    between atoms: _434  and  _435
REMARK  180  A    between atoms: _438  and  _440
REMARK  181  A    between atoms: _440  and  _441
REMARK  182  A    between atoms: _440  and  _443
REMARK  183  A    between atoms: _446  and  _448
REMARK  184  A    between atoms: _448  and  _449
REMARK  185  A    between atoms: _452  and  _454
REMARK  186  A    between atoms: _454  and  _455
REMARK  187  A    between atoms: _454  and  _457
REMARK  188  A    between atoms: _457  and  _458
REMARK  189  A    between atoms: _463  and  _464
REMARK  190  A    between atoms: _466  and  _468
REMARK  191  A    between atoms: _468  and  _469
REMARK  192  A    between atoms: _468  and  _471
REMARK  193  A    between atoms: _471  and  _472
REMARK  194  A    between atoms: _477  and  _478
REMARK  195  A    between atoms: _480  and  _482
REMARK  196  A    between atoms: _482  and  _483
REMARK  197  A    between atoms: _485  and  _487
REMARK  198  A    between atoms: _487  and  _488
REMARK  199  A    between atoms: _487  and  _490
REMARK  200  A    between atoms: _490  and  _491
REMARK  201  A    between atoms: _491  and  _492
REMARK  202  A    between atoms: _492  and  _493
REMARK  203  A    between atoms: _493  and  _494
REMARK  204  A    between atoms: _498  and  _500
REMARK  205  A    between atoms: _500  and  _501
REMARK  206  A    between atoms: _503  and  _505
REMARK  207  A    between atoms: _505  and  _506
REMARK  208  A    between atoms: _505  and  _508
REMARK  209  A    between atoms: _508  and  _509
REMARK  210  A    between atoms: _512  and  _514
REMARK  211  A    between atoms: _514  and  _515
REMARK                            x       y       z     vdW  Elec       q    Type
REMARK                         _______ _______ _______ _____ _____    ______ ____
ROOT
ATOM      1  O   HOH     1       8.215  -2.278  43.393  0.00  0.00    +0.000 OA
ENDROOT
TORSDOF 0
