REMARK  Name = ../refined-set-2016/3m3o/3m3o_pocket.pdb
REMARK  109 active torsions:
REMARK  status: ('A' for Active; 'I' for Inactive)
REMARK    1  A    between atoms: _1  and  _3
REMARK    2  A    between atoms: _3  and  _4
REMARK    3  A    between atoms: _6  and  _8
REMARK    4  A    between atoms: _8  and  _9
REMARK    5  A    between atoms: _8  and  _11
REMARK    6  A    between atoms: _11  and  _12
REMARK    7  A    between atoms: _18  and  _19
REMARK    8  A    between atoms: _24  and  _26
REMARK    9  A    between atoms: _26  and  _27
REMARK   10  A    between atoms: _26  and  _29
REMARK   11  A    between atoms: _29  and  _30
REMARK   12  A    between atoms: _35  and  _37
REMARK   13  A    between atoms: _37  and  _38
REMARK   14  A    between atoms: _37  and  _40
REMARK   15  A    between atoms: _40  and  _41
REMARK   16  A    between atoms: _44  and  _46
REMARK   17  A    between atoms: _46  and  _47
REMARK   18  A    between atoms: _46  and  _49
REMARK   19  A    between atoms: _49  and  _50
REMARK   20  A    between atoms: _53  and  _55
REMARK   21  A    between atoms: _55  and  _56
REMARK   22  A    between atoms: _55  and  _58
REMARK   23  A    between atoms: _58  and  _59
REMARK   24  A    between atoms: _64  and  _66
REMARK   25  A    between atoms: _66  and  _67
REMARK   26  A    between atoms: _66  and  _69
REMARK   27  A    between atoms: _69  and  _70
REMARK   28  A    between atoms: _75  and  _76
REMARK   29  A    between atoms: _78  and  _80
REMARK   30  A    between atoms: _80  and  _81
REMARK   31  A    between atoms: _80  and  _83
REMARK   32  A    between atoms: _83  and  _84
REMARK   33  A    between atoms: _89  and  _91
REMARK   34  A    between atoms: _91  and  _92
REMARK   35  A    between atoms: _91  and  _94
REMARK   36  A    between atoms: _94  and  _95
REMARK   37  A    between atoms: _98  and  _100
REMARK   38  A    between atoms: _100  and  _101
REMARK   39  A    between atoms: _104  and  _106
REMARK   40  A    between atoms: _106  and  _107
REMARK   41  A    between atoms: _106  and  _109
REMARK   42  A    between atoms: _109  and  _110
REMARK   43  A    between atoms: _116  and  _118
REMARK   44  A    between atoms: _118  and  _119
REMARK   45  A    between atoms: _118  and  _121
REMARK   46  A    between atoms: _121  and  _122
REMARK   47  A    between atoms: _122  and  _123
REMARK   48  A    between atoms: _123  and  _124
REMARK   49  A    between atoms: _133  and  _135
REMARK   50  A    between atoms: _135  and  _136
REMARK   51  A    between atoms: _135  and  _138
REMARK   52  A    between atoms: _138  and  _139
REMARK   53  A    between atoms: _139  and  _140
REMARK   54  A    between atoms: _145  and  _147
REMARK   55  A    between atoms: _147  and  _148
REMARK   56  A    between atoms: _147  and  _150
REMARK   57  A    between atoms: _150  and  _151
REMARK   58  A    between atoms: _151  and  _152
REMARK   59  A    between atoms: _155  and  _157
REMARK   60  A    between atoms: _157  and  _158
REMARK   61  A    between atoms: _157  and  _160
REMARK   62  A    between atoms: _163  and  _165
REMARK   63  A    between atoms: _165  and  _166
REMARK   64  A    between atoms: _165  and  _168
REMARK   65  A    between atoms: _168  and  _169
REMARK   66  A    between atoms: _172  and  _174
REMARK   67  A    between atoms: _174  and  _175
REMARK   68  A    between atoms: _174  and  _177
REMARK   69  A    between atoms: _177  and  _178
REMARK   70  A    between atoms: _184  and  _186
REMARK   71  A    between atoms: _186  and  _187
REMARK   72  A    between atoms: _186  and  _189
REMARK   73  A    between atoms: _189  and  _190
REMARK   74  A    between atoms: _195  and  _197
REMARK   75  A    between atoms: _197  and  _198
REMARK   76  A    between atoms: _197  and  _200
REMARK   77  A    between atoms: _200  and  _201
REMARK   78  A    between atoms: _203  and  _205
REMARK   79  A    between atoms: _205  and  _206
REMARK   80  A    between atoms: _205  and  _208
REMARK   81  A    between atoms: _208  and  _209
REMARK   82  A    between atoms: _209  and  _210
REMARK   83  A    between atoms: _210  and  _211
REMARK   84  A    between atoms: _221  and  _222
REMARK   85  A    between atoms: _227  and  _229
REMARK   86  A    between atoms: _229  and  _230
REMARK   87  A    between atoms: _229  and  _232
REMARK   88  A    between atoms: _232  and  _233
REMARK   89  A    between atoms: _243  and  _245
REMARK   90  A    between atoms: _245  and  _246
REMARK   91  A    between atoms: _245  and  _248
REMARK   92  A    between atoms: _248  and  _249
REMARK   93  A    between atoms: _252  and  _254
REMARK   94  A    between atoms: _254  and  _255
REMARK   95  A    between atoms: _254  and  _257
REMARK   96  A    between atoms: _260  and  _262
REMARK   97  A    between atoms: _262  and  _263
REMARK   98  A    between atoms: _262  and  _265
REMARK   99  A    between atoms: _265  and  _266
REMARK  100  A    between atoms: _266  and  _267
REMARK  101  A    between atoms: _270  and  _272
REMARK  102  A    between atoms: _272  and  _273
REMARK  103  A    between atoms: _272  and  _275
REMARK  104  A    between atoms: _275  and  _276
REMARK  105  A    between atoms: _276  and  _277
REMARK  106  A    between atoms: _282  and  _284
REMARK  107  A    between atoms: _284  and  _285
REMARK  108  A    between atoms: _284  and  _287
REMARK  109  A    between atoms: _287  and  _288
REMARK                            x       y       z     vdW  Elec       q    Type
REMARK                         _______ _______ _______ _____ _____    ______ ____
ROOT
ATOM      1  C   ASN A   2      -5.199 -19.447   0.361  0.00  0.00    +0.244 C 
ATOM      2  N   PRO A   3      -4.142 -19.839   1.093  0.00  0.00    -0.272 N 
ATOM      3  CA  PRO A   3      -4.135 -20.567   2.365  0.00  0.00    +0.152 C 
ATOM      4  CB  PRO A   3      -2.909 -21.447   2.225  0.00  0.00    +0.031 C 
ATOM      5  CG  PRO A   3      -1.940 -20.489   1.595  0.00  0.00    +0.024 C 
ATOM      6  CD  PRO A   3      -2.779 -19.779   0.532  0.00  0.00    +0.094 C 
ATOM      7  O   ASN A   2      -5.059 -18.868  -0.716  0.00  0.00    -0.273 OA
ENDROOT
BRANCH   3   8
ATOM      8  C   PRO A   3      -4.026 -19.655   3.584  0.00  0.00    +0.241 C 
ATOM      9  O   PRO A   3      -4.136 -20.110   4.721  0.00  0.00    -0.273 OA
ATOM     10  N   ASN A   4      -3.817 -18.367   3.346  0.00  0.00    -0.298 N 
ATOM     11  H   ASN A   4      -3.768 -18.032   2.363  0.00  0.00    +0.150 HD
BRANCH  10  12
ATOM     12  CA  ASN A   4      -3.654 -17.411   4.434  0.00  0.00    +0.146 C 
BRANCH  12  13
ATOM     13  C   ASN A   4      -4.940 -16.752   4.918  0.00  0.00    +0.227 C 
ATOM     14  O   ASN A   4      -5.820 -16.427   4.127  0.00  0.00    -0.286 OA
ENDBRANCH  12  13
BRANCH  12  15
ATOM     15  CB  ASN A   4      -2.664 -16.325   4.006  0.00  0.00    +0.112 C 
BRANCH  15  16
ATOM     16  CG  ASN A   4      -1.385 -16.903   3.437  0.00  0.00    +0.222 C 
ATOM     17  OD1 ASN A   4      -0.793 -17.812   4.020  0.00  0.00    -0.275 OA
ATOM     18  ND2 ASN A   4      -0.946 -16.372   2.302  0.00  0.00    -0.329 N 
ATOM     19 HD21 ASN A   4      -0.068 -16.723   1.869  0.00  0.00    +0.145 HD
ATOM     20 HD22 ASN A   4      -1.480 -15.605   1.846  0.00  0.00    +0.145 HD
ENDBRANCH  15  16
ENDBRANCH  12  15
ENDBRANCH  10  12
ENDBRANCH   3   8
BRANCH   1  21
ATOM     21  CA  ASN A   2      -6.594 -19.779   0.886  0.00  0.00    +0.158 C 
BRANCH  21  24
ATOM     22  C   GLY A   1      -7.361 -20.053   3.173  0.00  0.00    +0.240 C 
ATOM     23  O   GLY A   1      -7.619 -21.246   2.989  0.00  0.00    -0.274 OA
ATOM     24  N   ASN A   2      -6.855 -19.272   2.226  0.00  0.00    -0.297 N 
ATOM     25  H   ASN A   2      -6.641 -18.278   2.446  0.00  0.00    +0.150 HD
BRANCH  22  26
ATOM     26  CA  GLY A   1      -7.605 -19.412   4.525  0.00  0.00    +0.169 C 
BRANCH  26  27
ATOM     27  N   GLY A   1      -8.378 -20.303   5.369  0.00  0.00    -0.236 NA
ATOM     28  H   GLY A   1      -7.885 -21.007   5.955  0.00  0.00    +0.142 HD
ENDBRANCH  26  27
ENDBRANCH  22  26
ENDBRANCH  21  24
BRANCH  21  29
ATOM     29  CB  ASN A   2      -7.650 -19.231  -0.079  0.00  0.00    +0.114 C 
BRANCH  29  30
ATOM     30  CG  ASN A   2      -7.822 -17.715   0.031  0.00  0.00    +0.222 C 
ATOM     31  ND2 ASN A   2      -7.125 -17.099   0.987  0.00  0.00    -0.329 N 
ATOM     32 HD21 ASN A   2      -6.499 -17.648   1.610  0.00  0.00    +0.145 HD
ATOM     33 HD22 ASN A   2      -7.208 -16.070   1.110  0.00  0.00    +0.145 HD
ATOM     34  OD1 ASN A   2      -8.578 -17.108  -0.733  0.00  0.00    -0.275 OA
ENDBRANCH  29  30
ENDBRANCH  21  29
ENDBRANCH   1  21
TORSDOF 11
REMARK  Name = ../refined-set-2016/3m3o/3m3o_pocket.pdb
REMARK  109 active torsions:
REMARK  status: ('A' for Active; 'I' for Inactive)
REMARK    1  A    between atoms: _1  and  _3
REMARK    2  A    between atoms: _3  and  _4
REMARK    3  A    between atoms: _6  and  _8
REMARK    4  A    between atoms: _8  and  _9
REMARK    5  A    between atoms: _8  and  _11
REMARK    6  A    between atoms: _11  and  _12
REMARK    7  A    between atoms: _18  and  _19
REMARK    8  A    between atoms: _24  and  _26
REMARK    9  A    between atoms: _26  and  _27
REMARK   10  A    between atoms: _26  and  _29
REMARK   11  A    between atoms: _29  and  _30
REMARK   12  A    between atoms: _35  and  _37
REMARK   13  A    between atoms: _37  and  _38
REMARK   14  A    between atoms: _37  and  _40
REMARK   15  A    between atoms: _40  and  _41
REMARK   16  A    between atoms: _44  and  _46
REMARK   17  A    between atoms: _46  and  _47
REMARK   18  A    between atoms: _46  and  _49
REMARK   19  A    between atoms: _49  and  _50
REMARK   20  A    between atoms: _53  and  _55
REMARK   21  A    between atoms: _55  and  _56
REMARK   22  A    between atoms: _55  and  _58
REMARK   23  A    between atoms: _58  and  _59
REMARK   24  A    between atoms: _64  and  _66
REMARK   25  A    between atoms: _66  and  _67
REMARK   26  A    between atoms: _66  and  _69
REMARK   27  A    between atoms: _69  and  _70
REMARK   28  A    between atoms: _75  and  _76
REMARK   29  A    between atoms: _78  and  _80
REMARK   30  A    between atoms: _80  and  _81
REMARK   31  A    between atoms: _80  and  _83
REMARK   32  A    between atoms: _83  and  _84
REMARK   33  A    between atoms: _89  and  _91
REMARK   34  A    between atoms: _91  and  _92
REMARK   35  A    between atoms: _91  and  _94
REMARK   36  A    between atoms: _94  and  _95
REMARK   37  A    between atoms: _98  and  _100
REMARK   38  A    between atoms: _100  and  _101
REMARK   39  A    between atoms: _104  and  _106
REMARK   40  A    between atoms: _106  and  _107
REMARK   41  A    between atoms: _106  and  _109
REMARK   42  A    between atoms: _109  and  _110
REMARK   43  A    between atoms: _116  and  _118
REMARK   44  A    between atoms: _118  and  _119
REMARK   45  A    between atoms: _118  and  _121
REMARK   46  A    between atoms: _121  and  _122
REMARK   47  A    between atoms: _122  and  _123
REMARK   48  A    between atoms: _123  and  _124
REMARK   49  A    between atoms: _133  and  _135
REMARK   50  A    between atoms: _135  and  _136
REMARK   51  A    between atoms: _135  and  _138
REMARK   52  A    between atoms: _138  and  _139
REMARK   53  A    between atoms: _139  and  _140
REMARK   54  A    between atoms: _145  and  _147
REMARK   55  A    between atoms: _147  and  _148
REMARK   56  A    between atoms: _147  and  _150
REMARK   57  A    between atoms: _150  and  _151
REMARK   58  A    between atoms: _151  and  _152
REMARK   59  A    between atoms: _155  and  _157
REMARK   60  A    between atoms: _157  and  _158
REMARK   61  A    between atoms: _157  and  _160
REMARK   62  A    between atoms: _163  and  _165
REMARK   63  A    between atoms: _165  and  _166
REMARK   64  A    between atoms: _165  and  _168
REMARK   65  A    between atoms: _168  and  _169
REMARK   66  A    between atoms: _172  and  _174
REMARK   67  A    between atoms: _174  and  _175
REMARK   68  A    between atoms: _174  and  _177
REMARK   69  A    between atoms: _177  and  _178
REMARK   70  A    between atoms: _184  and  _186
REMARK   71  A    between atoms: _186  and  _187
REMARK   72  A    between atoms: _186  and  _189
REMARK   73  A    between atoms: _189  and  _190
REMARK   74  A    between atoms: _195  and  _197
REMARK   75  A    between atoms: _197  and  _198
REMARK   76  A    between atoms: _197  and  _200
REMARK   77  A    between atoms: _200  and  _201
REMARK   78  A    between atoms: _203  and  _205
REMARK   79  A    between atoms: _205  and  _206
REMARK   80  A    between atoms: _205  and  _208
REMARK   81  A    between atoms: _208  and  _209
REMARK   82  A    between atoms: _209  and  _210
REMARK   83  A    between atoms: _210  and  _211
REMARK   84  A    between atoms: _221  and  _222
REMARK   85  A    between atoms: _227  and  _229
REMARK   86  A    between atoms: _229  and  _230
REMARK   87  A    between atoms: _229  and  _232
REMARK   88  A    between atoms: _232  and  _233
REMARK   89  A    between atoms: _243  and  _245
REMARK   90  A    between atoms: _245  and  _246
REMARK   91  A    between atoms: _245  and  _248
REMARK   92  A    between atoms: _248  and  _249
REMARK   93  A    between atoms: _252  and  _254
REMARK   94  A    between atoms: _254  and  _255
REMARK   95  A    between atoms: _254  and  _257
REMARK   96  A    between atoms: _260  and  _262
REMARK   97  A    between atoms: _262  and  _263
REMARK   98  A    between atoms: _262  and  _265
REMARK   99  A    between atoms: _265  and  _266
REMARK  100  A    between atoms: _266  and  _267
REMARK  101  A    between atoms: _270  and  _272
REMARK  102  A    between atoms: _272  and  _273
REMARK  103  A    between atoms: _272  and  _275
REMARK  104  A    between atoms: _275  and  _276
REMARK  105  A    between atoms: _276  and  _277
REMARK  106  A    between atoms: _282  and  _284
REMARK  107  A    between atoms: _284  and  _285
REMARK  108  A    between atoms: _284  and  _287
REMARK  109  A    between atoms: _287  and  _288
REMARK                            x       y       z     vdW  Elec       q    Type
REMARK                         _______ _______ _______ _____ _____    ______ ____
ROOT
ATOM      1  C   THR A   1      -2.408 -13.108   7.350  0.00  0.00    +0.241 C 
ATOM      2  O   THR A   1      -1.803 -14.126   7.689  0.00  0.00    -0.274 OA
ATOM      3  N   THR A   2      -1.834 -12.061   6.771  0.00  0.00    -0.296 N 
ATOM      4  H   THR A   2      -2.437 -11.270   6.467  0.00  0.00    +0.150 HD
ENDROOT
BRANCH   1   5
ATOM      5  CA  THR A   1      -3.900 -12.991   7.566  0.00  0.00    +0.172 C 
BRANCH   5   6
ATOM      6  N   THR A   1      -4.496 -14.295   7.364  0.00  0.00    -0.236 NA
ATOM      7  H   THR A   1      -3.918 -15.143   7.536  0.00  0.00    +0.142 HD
ENDBRANCH   5   6
BRANCH   5   8
ATOM      8  CB  THR A   1      -4.125 -12.500   9.015  0.00  0.00    +0.135 C 
ATOM      9  CG2 THR A   1      -3.337 -11.224   9.274  0.00  0.00    +0.034 C 
BRANCH   8  10
ATOM     10  OG1 THR A   1      -5.525 -12.273   9.241  0.00  0.00    -0.383 OA
ATOM     11  HG1 THR A   1      -5.853 -11.586   8.608  0.00  0.00    +0.210 HD
ENDBRANCH   8  10
ENDBRANCH   5   8
ENDBRANCH   1   5
BRANCH   3  12
ATOM     12  CA  THR A   2      -0.403 -11.970   6.542  0.00  0.00    +0.164 C 
BRANCH  12  13
ATOM     13  C   THR A   2      -0.040 -10.548   6.899  0.00  0.00    +0.229 C 
ATOM     14  O   THR A   2      -0.848  -9.634   6.713  0.00  0.00    -0.286 OA
ENDBRANCH  12  13
BRANCH  12  15
ATOM     15  CB  THR A   2      -0.006 -12.189   5.068  0.00  0.00    +0.136 C 
ATOM     16  CG2 THR A   2      -0.577 -13.497   4.559  0.00  0.00    +0.034 C 
BRANCH  15  17
ATOM     17  OG1 THR A   2      -0.489 -11.097   4.271  0.00  0.00    -0.382 OA
ATOM     18  HG1 THR A   2      -0.232 -11.241   3.326  0.00  0.00    +0.210 HD
ENDBRANCH  15  17
ENDBRANCH  12  15
ENDBRANCH   3  12
TORSDOF 8
REMARK  Name = ../refined-set-2016/3m3o/3m3o_pocket.pdb
REMARK  109 active torsions:
REMARK  status: ('A' for Active; 'I' for Inactive)
REMARK    1  A    between atoms: _1  and  _3
REMARK    2  A    between atoms: _3  and  _4
REMARK    3  A    between atoms: _6  and  _8
REMARK    4  A    between atoms: _8  and  _9
REMARK    5  A    between atoms: _8  and  _11
REMARK    6  A    between atoms: _11  and  _12
REMARK    7  A    between atoms: _18  and  _19
REMARK    8  A    between atoms: _24  and  _26
REMARK    9  A    between atoms: _26  and  _27
REMARK   10  A    between atoms: _26  and  _29
REMARK   11  A    between atoms: _29  and  _30
REMARK   12  A    between atoms: _35  and  _37
REMARK   13  A    between atoms: _37  and  _38
REMARK   14  A    between atoms: _37  and  _40
REMARK   15  A    between atoms: _40  and  _41
REMARK   16  A    between atoms: _44  and  _46
REMARK   17  A    between atoms: _46  and  _47
REMARK   18  A    between atoms: _46  and  _49
REMARK   19  A    between atoms: _49  and  _50
REMARK   20  A    between atoms: _53  and  _55
REMARK   21  A    between atoms: _55  and  _56
REMARK   22  A    between atoms: _55  and  _58
REMARK   23  A    between atoms: _58  and  _59
REMARK   24  A    between atoms: _64  and  _66
REMARK   25  A    between atoms: _66  and  _67
REMARK   26  A    between atoms: _66  and  _69
REMARK   27  A    between atoms: _69  and  _70
REMARK   28  A    between atoms: _75  and  _76
REMARK   29  A    between atoms: _78  and  _80
REMARK   30  A    between atoms: _80  and  _81
REMARK   31  A    between atoms: _80  and  _83
REMARK   32  A    between atoms: _83  and  _84
REMARK   33  A    between atoms: _89  and  _91
REMARK   34  A    between atoms: _91  and  _92
REMARK   35  A    between atoms: _91  and  _94
REMARK   36  A    between atoms: _94  and  _95
REMARK   37  A    between atoms: _98  and  _100
REMARK   38  A    between atoms: _100  and  _101
REMARK   39  A    between atoms: _104  and  _106
REMARK   40  A    between atoms: _106  and  _107
REMARK   41  A    between atoms: _106  and  _109
REMARK   42  A    between atoms: _109  and  _110
REMARK   43  A    between atoms: _116  and  _118
REMARK   44  A    between atoms: _118  and  _119
REMARK   45  A    between atoms: _118  and  _121
REMARK   46  A    between atoms: _121  and  _122
REMARK   47  A    between atoms: _122  and  _123
REMARK   48  A    between atoms: _123  and  _124
REMARK   49  A    between atoms: _133  and  _135
REMARK   50  A    between atoms: _135  and  _136
REMARK   51  A    between atoms: _135  and  _138
REMARK   52  A    between atoms: _138  and  _139
REMARK   53  A    between atoms: _139  and  _140
REMARK   54  A    between atoms: _145  and  _147
REMARK   55  A    between atoms: _147  and  _148
REMARK   56  A    between atoms: _147  and  _150
REMARK   57  A    between atoms: _150  and  _151
REMARK   58  A    between atoms: _151  and  _152
REMARK   59  A    between atoms: _155  and  _157
REMARK   60  A    between atoms: _157  and  _158
REMARK   61  A    between atoms: _157  and  _160
REMARK   62  A    between atoms: _163  and  _165
REMARK   63  A    between atoms: _165  and  _166
REMARK   64  A    between atoms: _165  and  _168
REMARK   65  A    between atoms: _168  and  _169
REMARK   66  A    between atoms: _172  and  _174
REMARK   67  A    between atoms: _174  and  _175
REMARK   68  A    between atoms: _174  and  _177
REMARK   69  A    between atoms: _177  and  _178
REMARK   70  A    between atoms: _184  and  _186
REMARK   71  A    between atoms: _186  and  _187
REMARK   72  A    between atoms: _186  and  _189
REMARK   73  A    between atoms: _189  and  _190
REMARK   74  A    between atoms: _195  and  _197
REMARK   75  A    between atoms: _197  and  _198
REMARK   76  A    between atoms: _197  and  _200
REMARK   77  A    between atoms: _200  and  _201
REMARK   78  A    between atoms: _203  and  _205
REMARK   79  A    between atoms: _205  and  _206
REMARK   80  A    between atoms: _205  and  _208
REMARK   81  A    between atoms: _208  and  _209
REMARK   82  A    between atoms: _209  and  _210
REMARK   83  A    between atoms: _210  and  _211
REMARK   84  A    between atoms: _221  and  _222
REMARK   85  A    between atoms: _227  and  _229
REMARK   86  A    between atoms: _229  and  _230
REMARK   87  A    between atoms: _229  and  _232
REMARK   88  A    between atoms: _232  and  _233
REMARK   89  A    between atoms: _243  and  _245
REMARK   90  A    between atoms: _245  and  _246
REMARK   91  A    between atoms: _245  and  _248
REMARK   92  A    between atoms: _248  and  _249
REMARK   93  A    between atoms: _252  and  _254
REMARK   94  A    between atoms: _254  and  _255
REMARK   95  A    between atoms: _254  and  _257
REMARK   96  A    between atoms: _260  and  _262
REMARK   97  A    between atoms: _262  and  _263
REMARK   98  A    between atoms: _262  and  _265
REMARK   99  A    between atoms: _265  and  _266
REMARK  100  A    between atoms: _266  and  _267
REMARK  101  A    between atoms: _270  and  _272
REMARK  102  A    between atoms: _272  and  _273
REMARK  103  A    between atoms: _272  and  _275
REMARK  104  A    between atoms: _275  and  _276
REMARK  105  A    between atoms: _276  and  _277
REMARK  106  A    between atoms: _282  and  _284
REMARK  107  A    between atoms: _284  and  _285
REMARK  108  A    between atoms: _284  and  _287
REMARK  109  A    between atoms: _287  and  _288
REMARK                            x       y       z     vdW  Elec       q    Type
REMARK                         _______ _______ _______ _____ _____    ______ ____
ROOT
ATOM      1  CB  ASN A   1       4.354  -8.107   4.251  0.00  0.00    +0.110 C 
ENDROOT
BRANCH   1   2
ATOM      2  CG  ASN A   1       3.449  -9.295   3.971  0.00  0.00    +0.221 C 
ATOM      3  OD1 ASN A   1       3.899 -10.441   3.941  0.00  0.00    -0.275 OA
ATOM      4  ND2 ASN A   1       2.160  -9.025   3.777  0.00  0.00    -0.329 N 
ATOM      5 HD21 ASN A   1       1.824  -8.041   3.811  0.00  0.00    +0.145 HD
ATOM      6 HD22 ASN A   1       1.489  -9.798   3.591  0.00  0.00    +0.145 HD
ENDBRANCH   1   2
BRANCH   1   7
ATOM      7  CA  ASN A   1       4.682  -7.943   5.742  0.00  0.00    +0.142 C 
BRANCH   7   8
ATOM      8  N   ASN A   1       3.441  -7.975   6.512  0.00  0.00    -0.239 NA
ATOM      9  H   ASN A   1       2.869  -7.111   6.599  0.00  0.00    +0.142 HD
ENDBRANCH   7   8
BRANCH   7  10
ATOM     10  C   ASN A   1       5.565  -6.701   5.886  0.00  0.00    +0.225 C 
ATOM     11  O   ASN A   1       5.073  -5.573   6.015  0.00  0.00    -0.287 OA
ENDBRANCH   7  10
ENDBRANCH   1   7
TORSDOF 4
REMARK  Name = ../refined-set-2016/3m3o/3m3o_pocket.pdb
REMARK  109 active torsions:
REMARK  status: ('A' for Active; 'I' for Inactive)
REMARK    1  A    between atoms: _1  and  _3
REMARK    2  A    between atoms: _3  and  _4
REMARK    3  A    between atoms: _6  and  _8
REMARK    4  A    between atoms: _8  and  _9
REMARK    5  A    between atoms: _8  and  _11
REMARK    6  A    between atoms: _11  and  _12
REMARK    7  A    between atoms: _18  and  _19
REMARK    8  A    between atoms: _24  and  _26
REMARK    9  A    between atoms: _26  and  _27
REMARK   10  A    between atoms: _26  and  _29
REMARK   11  A    between atoms: _29  and  _30
REMARK   12  A    between atoms: _35  and  _37
REMARK   13  A    between atoms: _37  and  _38
REMARK   14  A    between atoms: _37  and  _40
REMARK   15  A    between atoms: _40  and  _41
REMARK   16  A    between atoms: _44  and  _46
REMARK   17  A    between atoms: _46  and  _47
REMARK   18  A    between atoms: _46  and  _49
REMARK   19  A    between atoms: _49  and  _50
REMARK   20  A    between atoms: _53  and  _55
REMARK   21  A    between atoms: _55  and  _56
REMARK   22  A    between atoms: _55  and  _58
REMARK   23  A    between atoms: _58  and  _59
REMARK   24  A    between atoms: _64  and  _66
REMARK   25  A    between atoms: _66  and  _67
REMARK   26  A    between atoms: _66  and  _69
REMARK   27  A    between atoms: _69  and  _70
REMARK   28  A    between atoms: _75  and  _76
REMARK   29  A    between atoms: _78  and  _80
REMARK   30  A    between atoms: _80  and  _81
REMARK   31  A    between atoms: _80  and  _83
REMARK   32  A    between atoms: _83  and  _84
REMARK   33  A    between atoms: _89  and  _91
REMARK   34  A    between atoms: _91  and  _92
REMARK   35  A    between atoms: _91  and  _94
REMARK   36  A    between atoms: _94  and  _95
REMARK   37  A    between atoms: _98  and  _100
REMARK   38  A    between atoms: _100  and  _101
REMARK   39  A    between atoms: _104  and  _106
REMARK   40  A    between atoms: _106  and  _107
REMARK   41  A    between atoms: _106  and  _109
REMARK   42  A    between atoms: _109  and  _110
REMARK   43  A    between atoms: _116  and  _118
REMARK   44  A    between atoms: _118  and  _119
REMARK   45  A    between atoms: _118  and  _121
REMARK   46  A    between atoms: _121  and  _122
REMARK   47  A    between atoms: _122  and  _123
REMARK   48  A    between atoms: _123  and  _124
REMARK   49  A    between atoms: _133  and  _135
REMARK   50  A    between atoms: _135  and  _136
REMARK   51  A    between atoms: _135  and  _138
REMARK   52  A    between atoms: _138  and  _139
REMARK   53  A    between atoms: _139  and  _140
REMARK   54  A    between atoms: _145  and  _147
REMARK   55  A    between atoms: _147  and  _148
REMARK   56  A    between atoms: _147  and  _150
REMARK   57  A    between atoms: _150  and  _151
REMARK   58  A    between atoms: _151  and  _152
REMARK   59  A    between atoms: _155  and  _157
REMARK   60  A    between atoms: _157  and  _158
REMARK   61  A    between atoms: _157  and  _160
REMARK   62  A    between atoms: _163  and  _165
REMARK   63  A    between atoms: _165  and  _166
REMARK   64  A    between atoms: _165  and  _168
REMARK   65  A    between atoms: _168  and  _169
REMARK   66  A    between atoms: _172  and  _174
REMARK   67  A    between atoms: _174  and  _175
REMARK   68  A    between atoms: _174  and  _177
REMARK   69  A    between atoms: _177  and  _178
REMARK   70  A    between atoms: _184  and  _186
REMARK   71  A    between atoms: _186  and  _187
REMARK   72  A    between atoms: _186  and  _189
REMARK   73  A    between atoms: _189  and  _190
REMARK   74  A    between atoms: _195  and  _197
REMARK   75  A    between atoms: _197  and  _198
REMARK   76  A    between atoms: _197  and  _200
REMARK   77  A    between atoms: _200  and  _201
REMARK   78  A    between atoms: _203  and  _205
REMARK   79  A    between atoms: _205  and  _206
REMARK   80  A    between atoms: _205  and  _208
REMARK   81  A    between atoms: _208  and  _209
REMARK   82  A    between atoms: _209  and  _210
REMARK   83  A    between atoms: _210  and  _211
REMARK   84  A    between atoms: _221  and  _222
REMARK   85  A    between atoms: _227  and  _229
REMARK   86  A    between atoms: _229  and  _230
REMARK   87  A    between atoms: _229  and  _232
REMARK   88  A    between atoms: _232  and  _233
REMARK   89  A    between atoms: _243  and  _245
REMARK   90  A    between atoms: _245  and  _246
REMARK   91  A    between atoms: _245  and  _248
REMARK   92  A    between atoms: _248  and  _249
REMARK   93  A    between atoms: _252  and  _254
REMARK   94  A    between atoms: _254  and  _255
REMARK   95  A    between atoms: _254  and  _257
REMARK   96  A    between atoms: _260  and  _262
REMARK   97  A    between atoms: _262  and  _263
REMARK   98  A    between atoms: _262  and  _265
REMARK   99  A    between atoms: _265  and  _266
REMARK  100  A    between atoms: _266  and  _267
REMARK  101  A    between atoms: _270  and  _272
REMARK  102  A    between atoms: _272  and  _273
REMARK  103  A    between atoms: _272  and  _275
REMARK  104  A    between atoms: _275  and  _276
REMARK  105  A    between atoms: _276  and  _277
REMARK  106  A    between atoms: _282  and  _284
REMARK  107  A    between atoms: _284  and  _285
REMARK  108  A    between atoms: _284  and  _287
REMARK  109  A    between atoms: _287  and  _288
REMARK                            x       y       z     vdW  Elec       q    Type
REMARK                         _______ _______ _______ _____ _____    ______ ____
ROOT
ATOM      1  CG  TYR A   1       7.070 -10.151   0.132  0.00  0.00    -0.020 A 
ATOM      2  CD2 TYR A   1       5.955 -10.080   0.970  0.00  0.00    -0.001 A 
ATOM      3  CE2 TYR A   1       4.680  -9.854   0.459  0.00  0.00    +0.036 A 
ATOM      4  CZ  TYR A   1       4.517  -9.692  -0.912  0.00  0.00    +0.134 A 
ATOM      5  CE1 TYR A   1       5.612  -9.755  -1.762  0.00  0.00    +0.036 A 
ATOM      6  CD1 TYR A   1       6.878  -9.982  -1.237  0.00  0.00    -0.001 A 
ENDROOT
BRANCH   4   7
ATOM      7  OH  TYR A   1       3.266  -9.462  -1.431  0.00  0.00    -0.506 OA
ATOM      8  HH  TYR A   1       2.603  -9.447  -0.696  0.00  0.00    +0.292 HD
ENDBRANCH   4   7
BRANCH   1   9
ATOM      9  CB  TYR A   1       8.444 -10.438   0.694  0.00  0.00    +0.051 C 
BRANCH   9  10
ATOM     10  CA  TYR A   1       9.340  -9.213   0.921  0.00  0.00    +0.137 C 
BRANCH  10  11
ATOM     11  N   TYR A   1      10.023  -8.826  -0.311  0.00  0.00    -0.239 NA
ATOM     12  H   TYR A   1      10.193  -9.552  -1.036  0.00  0.00    +0.142 HD
ENDBRANCH  10  11
BRANCH  10  13
ATOM     13  C   TYR A   1      10.435  -9.600   1.910  0.00  0.00    +0.224 C 
ATOM     14  O   TYR A   1      10.898 -10.738   1.905  0.00  0.00    -0.287 OA
ENDBRANCH  10  13
ENDBRANCH   9  10
ENDBRANCH   1   9
TORSDOF 5
REMARK  Name = ../refined-set-2016/3m3o/3m3o_pocket.pdb
REMARK  109 active torsions:
REMARK  status: ('A' for Active; 'I' for Inactive)
REMARK    1  A    between atoms: _1  and  _3
REMARK    2  A    between atoms: _3  and  _4
REMARK    3  A    between atoms: _6  and  _8
REMARK    4  A    between atoms: _8  and  _9
REMARK    5  A    between atoms: _8  and  _11
REMARK    6  A    between atoms: _11  and  _12
REMARK    7  A    between atoms: _18  and  _19
REMARK    8  A    between atoms: _24  and  _26
REMARK    9  A    between atoms: _26  and  _27
REMARK   10  A    between atoms: _26  and  _29
REMARK   11  A    between atoms: _29  and  _30
REMARK   12  A    between atoms: _35  and  _37
REMARK   13  A    between atoms: _37  and  _38
REMARK   14  A    between atoms: _37  and  _40
REMARK   15  A    between atoms: _40  and  _41
REMARK   16  A    between atoms: _44  and  _46
REMARK   17  A    between atoms: _46  and  _47
REMARK   18  A    between atoms: _46  and  _49
REMARK   19  A    between atoms: _49  and  _50
REMARK   20  A    between atoms: _53  and  _55
REMARK   21  A    between atoms: _55  and  _56
REMARK   22  A    between atoms: _55  and  _58
REMARK   23  A    between atoms: _58  and  _59
REMARK   24  A    between atoms: _64  and  _66
REMARK   25  A    between atoms: _66  and  _67
REMARK   26  A    between atoms: _66  and  _69
REMARK   27  A    between atoms: _69  and  _70
REMARK   28  A    between atoms: _75  and  _76
REMARK   29  A    between atoms: _78  and  _80
REMARK   30  A    between atoms: _80  and  _81
REMARK   31  A    between atoms: _80  and  _83
REMARK   32  A    between atoms: _83  and  _84
REMARK   33  A    between atoms: _89  and  _91
REMARK   34  A    between atoms: _91  and  _92
REMARK   35  A    between atoms: _91  and  _94
REMARK   36  A    between atoms: _94  and  _95
REMARK   37  A    between atoms: _98  and  _100
REMARK   38  A    between atoms: _100  and  _101
REMARK   39  A    between atoms: _104  and  _106
REMARK   40  A    between atoms: _106  and  _107
REMARK   41  A    between atoms: _106  and  _109
REMARK   42  A    between atoms: _109  and  _110
REMARK   43  A    between atoms: _116  and  _118
REMARK   44  A    between atoms: _118  and  _119
REMARK   45  A    between atoms: _118  and  _121
REMARK   46  A    between atoms: _121  and  _122
REMARK   47  A    between atoms: _122  and  _123
REMARK   48  A    between atoms: _123  and  _124
REMARK   49  A    between atoms: _133  and  _135
REMARK   50  A    between atoms: _135  and  _136
REMARK   51  A    between atoms: _135  and  _138
REMARK   52  A    between atoms: _138  and  _139
REMARK   53  A    between atoms: _139  and  _140
REMARK   54  A    between atoms: _145  and  _147
REMARK   55  A    between atoms: _147  and  _148
REMARK   56  A    between atoms: _147  and  _150
REMARK   57  A    between atoms: _150  and  _151
REMARK   58  A    between atoms: _151  and  _152
REMARK   59  A    between atoms: _155  and  _157
REMARK   60  A    between atoms: _157  and  _158
REMARK   61  A    between atoms: _157  and  _160
REMARK   62  A    between atoms: _163  and  _165
REMARK   63  A    between atoms: _165  and  _166
REMARK   64  A    between atoms: _165  and  _168
REMARK   65  A    between atoms: _168  and  _169
REMARK   66  A    between atoms: _172  and  _174
REMARK   67  A    between atoms: _174  and  _175
REMARK   68  A    between atoms: _174  and  _177
REMARK   69  A    between atoms: _177  and  _178
REMARK   70  A    between atoms: _184  and  _186
REMARK   71  A    between atoms: _186  and  _187
REMARK   72  A    between atoms: _186  and  _189
REMARK   73  A    between atoms: _189  and  _190
REMARK   74  A    between atoms: _195  and  _197
REMARK   75  A    between atoms: _197  and  _198
REMARK   76  A    between atoms: _197  and  _200
REMARK   77  A    between atoms: _200  and  _201
REMARK   78  A    between atoms: _203  and  _205
REMARK   79  A    between atoms: _205  and  _206
REMARK   80  A    between atoms: _205  and  _208
REMARK   81  A    between atoms: _208  and  _209
REMARK   82  A    between atoms: _209  and  _210
REMARK   83  A    between atoms: _210  and  _211
REMARK   84  A    between atoms: _221  and  _222
REMARK   85  A    between atoms: _227  and  _229
REMARK   86  A    between atoms: _229  and  _230
REMARK   87  A    between atoms: _229  and  _232
REMARK   88  A    between atoms: _232  and  _233
REMARK   89  A    between atoms: _243  and  _245
REMARK   90  A    between atoms: _245  and  _246
REMARK   91  A    between atoms: _245  and  _248
REMARK   92  A    between atoms: _248  and  _249
REMARK   93  A    between atoms: _252  and  _254
REMARK   94  A    between atoms: _254  and  _255
REMARK   95  A    between atoms: _254  and  _257
REMARK   96  A    between atoms: _260  and  _262
REMARK   97  A    between atoms: _262  and  _263
REMARK   98  A    between atoms: _262  and  _265
REMARK   99  A    between atoms: _265  and  _266
REMARK  100  A    between atoms: _266  and  _267
REMARK  101  A    between atoms: _270  and  _272
REMARK  102  A    between atoms: _272  and  _273
REMARK  103  A    between atoms: _272  and  _275
REMARK  104  A    between atoms: _275  and  _276
REMARK  105  A    between atoms: _276  and  _277
REMARK  106  A    between atoms: _282  and  _284
REMARK  107  A    between atoms: _284  and  _285
REMARK  108  A    between atoms: _284  and  _287
REMARK  109  A    between atoms: _287  and  _288
REMARK                            x       y       z     vdW  Elec       q    Type
REMARK                         _______ _______ _______ _____ _____    ______ ____
ROOT
ATOM      1  C   ALA A   3       0.589 -16.666   8.430  0.00  0.00    +0.241 C 
ATOM      2  O   ALA A   3       1.155 -17.651   8.912  0.00  0.00    -0.273 OA
ATOM      3  N   PHE A   4      -0.630 -16.273   8.793  0.00  0.00    -0.297 N 
ATOM      4  H   PHE A   4      -1.034 -15.417   8.362  0.00  0.00    +0.150 HD
ENDROOT
BRANCH   1   5
ATOM      5  CA  ALA A   3       1.273 -15.820   7.368  0.00  0.00    +0.149 C 
ATOM      6  CB  ALA A   3       1.438 -16.633   6.074  0.00  0.00    +0.031 C 
BRANCH   5   9
ATOM      7  C   ILE A   2       2.751 -13.996   7.951  0.00  0.00    +0.241 C 
ATOM      8  O   ILE A   2       1.852 -13.162   7.786  0.00  0.00    -0.273 OA
ATOM      9  N   ALA A   3       2.563 -15.299   7.785  0.00  0.00    -0.297 N 
ATOM     10  H   ALA A   3       3.350 -15.956   7.956  0.00  0.00    +0.150 HD
BRANCH   7  11
ATOM     11  CA  ILE A   2       4.150 -13.562   8.354  0.00  0.00    +0.148 C 
BRANCH  11  13
ATOM     12  C   HIS A   1       5.755 -13.261   6.513  0.00  0.00    +0.239 C 
ATOM     13  N   ILE A   2       4.713 -12.818   7.221  0.00  0.00    -0.297 N 
ATOM     14  H   ILE A   2       4.283 -11.908   6.959  0.00  0.00    +0.150 HD
ATOM     15  O   HIS A   1       6.340 -14.321   6.753  0.00  0.00    -0.274 OA
BRANCH  12  16
ATOM     16  CA  HIS A   1       6.229 -12.374   5.369  0.00  0.00    +0.151 C 
BRANCH  16  17
ATOM     17  N   HIS A   1       7.620 -12.052   5.658  0.00  0.00    -0.238 NA
ATOM     18  H   HIS A   1       8.301 -12.835   5.725  0.00  0.00    +0.142 HD
ENDBRANCH  16  17
BRANCH  16  19
ATOM     19  CB  HIS A   1       6.152 -13.132   4.038  0.00  0.00    +0.074 C 
BRANCH  19  20
ATOM     20  CG  HIS A   1       4.799 -13.698   3.717  0.00  0.00    +0.082 A 
ATOM     21  CD2 HIS A   1       4.361 -14.981   3.668  0.00  0.00    +0.115 A 
ATOM     22  NE2 HIS A   1       3.050 -14.949   3.258  0.00  0.00    -0.221 NA
ATOM     23  CE1 HIS A   1       2.691 -13.691   3.065  0.00  0.00    +0.199 A 
ATOM     24  ND1 HIS A   1       3.728 -12.917   3.337  0.00  0.00    -0.227 NA
ENDBRANCH  19  20
ENDBRANCH  16  19
ENDBRANCH  12  16
ENDBRANCH  11  13
BRANCH  11  25
ATOM     25  CB  ILE A   2       4.056 -12.671   9.629  0.00  0.00    +0.027 C 
ATOM     26  CG2 ILE A   2       3.598 -13.497  10.829  0.00  0.00    +0.002 C 
BRANCH  25  27
ATOM     27  CG1 ILE A   2       5.421 -12.061   9.939  0.00  0.00    +0.002 C 
ATOM     28  CD1 ILE A   2       5.381 -10.979  11.021  0.00  0.00    +0.000 C 
ENDBRANCH  25  27
ENDBRANCH  11  25
ENDBRANCH   7  11
ENDBRANCH   5   9
ENDBRANCH   1   5
BRANCH   3  29
ATOM     29  CA  PHE A   4      -1.414 -17.008   9.778  0.00  0.00    +0.153 C 
BRANCH  29  30
ATOM     30  C   PHE A   4      -2.414 -17.887   9.051  0.00  0.00    +0.241 C 
ATOM     31  N   ARG A   5      -2.303 -19.195   9.252  0.00  0.00    -0.298 N 
ATOM     32  H   ARG A   5      -1.559 -19.552   9.884  0.00  0.00    +0.150 HD
ATOM     33  O   PHE A   4      -3.271 -17.395   8.324  0.00  0.00    -0.273 OA
BRANCH  31  34
ATOM     34  CA  ARG A   5      -3.204 -20.139   8.604  0.00  0.00    +0.137 C 
BRANCH  34  35
ATOM     35  C   ARG A   5      -3.910 -20.986   9.662  0.00  0.00    +0.227 C 
ATOM     36  O   ARG A   5      -3.304 -21.862  10.287  0.00  0.00    -0.286 OA
ENDBRANCH  34  35
BRANCH  34  37
ATOM     37  CB  ARG A   5      -2.406 -21.024   7.642  0.00  0.00    +0.031 C 
BRANCH  37  38
ATOM     38  CG  ARG A   5      -1.528 -20.225   6.684  0.00  0.00    +0.045 C 
BRANCH  38  39
ATOM     39  CD  ARG A   5      -0.800 -21.122   5.687  0.00  0.00    +0.174 C 
BRANCH  39  40
ATOM     40  NE  ARG A   5      -0.028 -20.340   4.726  0.00  0.00    -0.265 N 
ATOM     41  HE  ARG A   5      -0.060 -19.304   4.806  0.00  0.00    +0.259 HD
ATOM     42  CZ  ARG A   5       0.713 -20.865   3.756  0.00  0.00    +0.342 C 
ATOM     43  NH2 ARG A   5       0.788 -22.184   3.609  0.00  0.00    -0.292 N 
ATOM     44 HH21 ARG A   5       0.265 -22.810   4.255  0.00  0.00    +0.255 HD
ATOM     45 HH22 ARG A   5       1.369 -22.590   2.848  0.00  0.00    +0.255 HD
ATOM     46  NH1 ARG A   5       1.384 -20.070   2.932  0.00  0.00    -0.292 N 
ATOM     47 HH11 ARG A   5       1.329 -19.038   3.046  0.00  0.00    +0.255 HD
ATOM     48 HH12 ARG A   5       1.964 -20.479   2.172  0.00  0.00    +0.255 HD
ENDBRANCH  39  40
ENDBRANCH  38  39
ENDBRANCH  37  38
ENDBRANCH  34  37
ENDBRANCH  31  34
ENDBRANCH  29  30
BRANCH  29  49
ATOM     49  CB  PHE A   4      -2.177 -16.061  10.707  0.00  0.00    +0.055 C 
BRANCH  49  50
ATOM     50  CG  PHE A   4      -1.294 -15.145  11.493  0.00  0.00    -0.020 A 
ATOM     51  CD2 PHE A   4      -0.875 -15.496  12.770  0.00  0.00    -0.004 A 
ATOM     52  CE2 PHE A   4      -0.051 -14.652  13.500  0.00  0.00    -0.000 A 
ATOM     53  CZ  PHE A   4       0.363 -13.438  12.953  0.00  0.00    -0.000 A 
ATOM     54  CE1 PHE A   4      -0.049 -13.080  11.682  0.00  0.00    -0.000 A 
ATOM     55  CD1 PHE A   4      -0.873 -13.930  10.955  0.00  0.00    -0.004 A 
ENDBRANCH  49  50
ENDBRANCH  29  49
ENDBRANCH   3  29
TORSDOF 20
REMARK  Name = ../refined-set-2016/3m3o/3m3o_pocket.pdb
REMARK  109 active torsions:
REMARK  status: ('A' for Active; 'I' for Inactive)
REMARK    1  A    between atoms: _1  and  _3
REMARK    2  A    between atoms: _3  and  _4
REMARK    3  A    between atoms: _6  and  _8
REMARK    4  A    between atoms: _8  and  _9
REMARK    5  A    between atoms: _8  and  _11
REMARK    6  A    between atoms: _11  and  _12
REMARK    7  A    between atoms: _18  and  _19
REMARK    8  A    between atoms: _24  and  _26
REMARK    9  A    between atoms: _26  and  _27
REMARK   10  A    between atoms: _26  and  _29
REMARK   11  A    between atoms: _29  and  _30
REMARK   12  A    between atoms: _35  and  _37
REMARK   13  A    between atoms: _37  and  _38
REMARK   14  A    between atoms: _37  and  _40
REMARK   15  A    between atoms: _40  and  _41
REMARK   16  A    between atoms: _44  and  _46
REMARK   17  A    between atoms: _46  and  _47
REMARK   18  A    between atoms: _46  and  _49
REMARK   19  A    between atoms: _49  and  _50
REMARK   20  A    between atoms: _53  and  _55
REMARK   21  A    between atoms: _55  and  _56
REMARK   22  A    between atoms: _55  and  _58
REMARK   23  A    between atoms: _58  and  _59
REMARK   24  A    between atoms: _64  and  _66
REMARK   25  A    between atoms: _66  and  _67
REMARK   26  A    between atoms: _66  and  _69
REMARK   27  A    between atoms: _69  and  _70
REMARK   28  A    between atoms: _75  and  _76
REMARK   29  A    between atoms: _78  and  _80
REMARK   30  A    between atoms: _80  and  _81
REMARK   31  A    between atoms: _80  and  _83
REMARK   32  A    between atoms: _83  and  _84
REMARK   33  A    between atoms: _89  and  _91
REMARK   34  A    between atoms: _91  and  _92
REMARK   35  A    between atoms: _91  and  _94
REMARK   36  A    between atoms: _94  and  _95
REMARK   37  A    between atoms: _98  and  _100
REMARK   38  A    between atoms: _100  and  _101
REMARK   39  A    between atoms: _104  and  _106
REMARK   40  A    between atoms: _106  and  _107
REMARK   41  A    between atoms: _106  and  _109
REMARK   42  A    between atoms: _109  and  _110
REMARK   43  A    between atoms: _116  and  _118
REMARK   44  A    between atoms: _118  and  _119
REMARK   45  A    between atoms: _118  and  _121
REMARK   46  A    between atoms: _121  and  _122
REMARK   47  A    between atoms: _122  and  _123
REMARK   48  A    between atoms: _123  and  _124
REMARK   49  A    between atoms: _133  and  _135
REMARK   50  A    between atoms: _135  and  _136
REMARK   51  A    between atoms: _135  and  _138
REMARK   52  A    between atoms: _138  and  _139
REMARK   53  A    between atoms: _139  and  _140
REMARK   54  A    between atoms: _145  and  _147
REMARK   55  A    between atoms: _147  and  _148
REMARK   56  A    between atoms: _147  and  _150
REMARK   57  A    between atoms: _150  and  _151
REMARK   58  A    between atoms: _151  and  _152
REMARK   59  A    between atoms: _155  and  _157
REMARK   60  A    between atoms: _157  and  _158
REMARK   61  A    between atoms: _157  and  _160
REMARK   62  A    between atoms: _163  and  _165
REMARK   63  A    between atoms: _165  and  _166
REMARK   64  A    between atoms: _165  and  _168
REMARK   65  A    between atoms: _168  and  _169
REMARK   66  A    between atoms: _172  and  _174
REMARK   67  A    between atoms: _174  and  _175
REMARK   68  A    between atoms: _174  and  _177
REMARK   69  A    between atoms: _177  and  _178
REMARK   70  A    between atoms: _184  and  _186
REMARK   71  A    between atoms: _186  and  _187
REMARK   72  A    between atoms: _186  and  _189
REMARK   73  A    between atoms: _189  and  _190
REMARK   74  A    between atoms: _195  and  _197
REMARK   75  A    between atoms: _197  and  _198
REMARK   76  A    between atoms: _197  and  _200
REMARK   77  A    between atoms: _200  and  _201
REMARK   78  A    between atoms: _203  and  _205
REMARK   79  A    between atoms: _205  and  _206
REMARK   80  A    between atoms: _205  and  _208
REMARK   81  A    between atoms: _208  and  _209
REMARK   82  A    between atoms: _209  and  _210
REMARK   83  A    between atoms: _210  and  _211
REMARK   84  A    between atoms: _221  and  _222
REMARK   85  A    between atoms: _227  and  _229
REMARK   86  A    between atoms: _229  and  _230
REMARK   87  A    between atoms: _229  and  _232
REMARK   88  A    between atoms: _232  and  _233
REMARK   89  A    between atoms: _243  and  _245
REMARK   90  A    between atoms: _245  and  _246
REMARK   91  A    between atoms: _245  and  _248
REMARK   92  A    between atoms: _248  and  _249
REMARK   93  A    between atoms: _252  and  _254
REMARK   94  A    between atoms: _254  and  _255
REMARK   95  A    between atoms: _254  and  _257
REMARK   96  A    between atoms: _260  and  _262
REMARK   97  A    between atoms: _262  and  _263
REMARK   98  A    between atoms: _262  and  _265
REMARK   99  A    between atoms: _265  and  _266
REMARK  100  A    between atoms: _266  and  _267
REMARK  101  A    between atoms: _270  and  _272
REMARK  102  A    between atoms: _272  and  _273
REMARK  103  A    between atoms: _272  and  _275
REMARK  104  A    between atoms: _275  and  _276
REMARK  105  A    between atoms: _276  and  _277
REMARK  106  A    between atoms: _282  and  _284
REMARK  107  A    between atoms: _284  and  _285
REMARK  108  A    between atoms: _284  and  _287
REMARK  109  A    between atoms: _287  and  _288
REMARK                            x       y       z     vdW  Elec       q    Type
REMARK                         _______ _______ _______ _____ _____    ______ ____
ROOT
ATOM      1  C   GLN A   1      -5.714 -25.327   8.733  0.00  0.00    +0.238 C 
ATOM      2  O   GLN A   1      -5.879 -26.541   8.851  0.00  0.00    -0.274 OA
ATOM      3  N   GLU A   2      -4.509 -24.766   8.665  0.00  0.00    -0.298 N 
ATOM      4  H   GLU A   2      -4.432 -23.734   8.563  0.00  0.00    +0.150 HD
ENDROOT
BRANCH   1   5
ATOM      5  CA  GLN A   1      -6.911 -24.388   8.674  0.00  0.00    +0.145 C 
BRANCH   5   6
ATOM      6  N   GLN A   1      -6.610 -23.058   9.180  0.00  0.00    -0.238 NA
ATOM      7  H   GLN A   1      -6.680 -22.242   8.539  0.00  0.00    +0.142 HD
ENDBRANCH   5   6
BRANCH   5   8
ATOM      8  CB  GLN A   1      -7.467 -24.304   7.242  0.00  0.00    +0.036 C 
BRANCH   8   9
ATOM      9  CG  GLN A   1      -6.519 -23.776   6.172  0.00  0.00    +0.087 C 
BRANCH   9  10
ATOM     10  CD  GLN A   1      -6.068 -22.345   6.416  0.00  0.00    +0.219 C 
ATOM     11  OE1 GLN A   1      -6.842 -21.499   6.873  0.00  0.00    -0.275 OA
ATOM     12  NE2 GLN A   1      -4.811 -22.065   6.096  0.00  0.00    -0.329 N 
ATOM     13 HE21 GLN A   1      -4.443 -21.101   6.228  0.00  0.00    +0.145 HD
ATOM     14 HE22 GLN A   1      -4.194 -22.809   5.714  0.00  0.00    +0.145 HD
ENDBRANCH   9  10
ENDBRANCH   8   9
ENDBRANCH   5   8
ENDBRANCH   1   5
BRANCH   3  15
ATOM     15  CA  GLU A   2      -3.294 -25.570   8.730  0.00  0.00    +0.137 C 
BRANCH  15  16
ATOM     16  C   GLU A   2      -2.684 -25.412  10.120  0.00  0.00    +0.227 C 
ATOM     17  O   GLU A   2      -1.659 -26.020  10.435  0.00  0.00    -0.286 OA
ENDBRANCH  15  16
BRANCH  15  18
ATOM     18  CB  GLU A   2      -2.299 -25.115   7.662  0.00  0.00    +0.039 C 
BRANCH  18  19
ATOM     19  CG  GLU A   2      -2.960 -24.481   6.451  0.00  0.00    +0.116 C 
BRANCH  19  20
ATOM     20  CD  GLU A   2      -2.186 -24.693   5.168  0.00  0.00    +0.365 C 
ATOM     21  OE2 GLU A   2      -0.944 -24.550   5.179  0.00  0.00    -0.246 OA
ATOM     22  OE1 GLU A   2      -2.830 -24.996   4.140  0.00  0.00    -0.246 OA
ENDBRANCH  19  20
ENDBRANCH  18  19
ENDBRANCH  15  18
ENDBRANCH   3  15
TORSDOF 10
REMARK  Name = ../refined-set-2016/3m3o/3m3o_pocket.pdb
REMARK  109 active torsions:
REMARK  status: ('A' for Active; 'I' for Inactive)
REMARK    1  A    between atoms: _1  and  _3
REMARK    2  A    between atoms: _3  and  _4
REMARK    3  A    between atoms: _6  and  _8
REMARK    4  A    between atoms: _8  and  _9
REMARK    5  A    between atoms: _8  and  _11
REMARK    6  A    between atoms: _11  and  _12
REMARK    7  A    between atoms: _18  and  _19
REMARK    8  A    between atoms: _24  and  _26
REMARK    9  A    between atoms: _26  and  _27
REMARK   10  A    between atoms: _26  and  _29
REMARK   11  A    between atoms: _29  and  _30
REMARK   12  A    between atoms: _35  and  _37
REMARK   13  A    between atoms: _37  and  _38
REMARK   14  A    between atoms: _37  and  _40
REMARK   15  A    between atoms: _40  and  _41
REMARK   16  A    between atoms: _44  and  _46
REMARK   17  A    between atoms: _46  and  _47
REMARK   18  A    between atoms: _46  and  _49
REMARK   19  A    between atoms: _49  and  _50
REMARK   20  A    between atoms: _53  and  _55
REMARK   21  A    between atoms: _55  and  _56
REMARK   22  A    between atoms: _55  and  _58
REMARK   23  A    between atoms: _58  and  _59
REMARK   24  A    between atoms: _64  and  _66
REMARK   25  A    between atoms: _66  and  _67
REMARK   26  A    between atoms: _66  and  _69
REMARK   27  A    between atoms: _69  and  _70
REMARK   28  A    between atoms: _75  and  _76
REMARK   29  A    between atoms: _78  and  _80
REMARK   30  A    between atoms: _80  and  _81
REMARK   31  A    between atoms: _80  and  _83
REMARK   32  A    between atoms: _83  and  _84
REMARK   33  A    between atoms: _89  and  _91
REMARK   34  A    between atoms: _91  and  _92
REMARK   35  A    between atoms: _91  and  _94
REMARK   36  A    between atoms: _94  and  _95
REMARK   37  A    between atoms: _98  and  _100
REMARK   38  A    between atoms: _100  and  _101
REMARK   39  A    between atoms: _104  and  _106
REMARK   40  A    between atoms: _106  and  _107
REMARK   41  A    between atoms: _106  and  _109
REMARK   42  A    between atoms: _109  and  _110
REMARK   43  A    between atoms: _116  and  _118
REMARK   44  A    between atoms: _118  and  _119
REMARK   45  A    between atoms: _118  and  _121
REMARK   46  A    between atoms: _121  and  _122
REMARK   47  A    between atoms: _122  and  _123
REMARK   48  A    between atoms: _123  and  _124
REMARK   49  A    between atoms: _133  and  _135
REMARK   50  A    between atoms: _135  and  _136
REMARK   51  A    between atoms: _135  and  _138
REMARK   52  A    between atoms: _138  and  _139
REMARK   53  A    between atoms: _139  and  _140
REMARK   54  A    between atoms: _145  and  _147
REMARK   55  A    between atoms: _147  and  _148
REMARK   56  A    between atoms: _147  and  _150
REMARK   57  A    between atoms: _150  and  _151
REMARK   58  A    between atoms: _151  and  _152
REMARK   59  A    between atoms: _155  and  _157
REMARK   60  A    between atoms: _157  and  _158
REMARK   61  A    between atoms: _157  and  _160
REMARK   62  A    between atoms: _163  and  _165
REMARK   63  A    between atoms: _165  and  _166
REMARK   64  A    between atoms: _165  and  _168
REMARK   65  A    between atoms: _168  and  _169
REMARK   66  A    between atoms: _172  and  _174
REMARK   67  A    between atoms: _174  and  _175
REMARK   68  A    between atoms: _174  and  _177
REMARK   69  A    between atoms: _177  and  _178
REMARK   70  A    between atoms: _184  and  _186
REMARK   71  A    between atoms: _186  and  _187
REMARK   72  A    between atoms: _186  and  _189
REMARK   73  A    between atoms: _189  and  _190
REMARK   74  A    between atoms: _195  and  _197
REMARK   75  A    between atoms: _197  and  _198
REMARK   76  A    between atoms: _197  and  _200
REMARK   77  A    between atoms: _200  and  _201
REMARK   78  A    between atoms: _203  and  _205
REMARK   79  A    between atoms: _205  and  _206
REMARK   80  A    between atoms: _205  and  _208
REMARK   81  A    between atoms: _208  and  _209
REMARK   82  A    between atoms: _209  and  _210
REMARK   83  A    between atoms: _210  and  _211
REMARK   84  A    between atoms: _221  and  _222
REMARK   85  A    between atoms: _227  and  _229
REMARK   86  A    between atoms: _229  and  _230
REMARK   87  A    between atoms: _229  and  _232
REMARK   88  A    between atoms: _232  and  _233
REMARK   89  A    between atoms: _243  and  _245
REMARK   90  A    between atoms: _245  and  _246
REMARK   91  A    between atoms: _245  and  _248
REMARK   92  A    between atoms: _248  and  _249
REMARK   93  A    between atoms: _252  and  _254
REMARK   94  A    between atoms: _254  and  _255
REMARK   95  A    between atoms: _254  and  _257
REMARK   96  A    between atoms: _260  and  _262
REMARK   97  A    between atoms: _262  and  _263
REMARK   98  A    between atoms: _262  and  _265
REMARK   99  A    between atoms: _265  and  _266
REMARK  100  A    between atoms: _266  and  _267
REMARK  101  A    between atoms: _270  and  _272
REMARK  102  A    between atoms: _272  and  _273
REMARK  103  A    between atoms: _272  and  _275
REMARK  104  A    between atoms: _275  and  _276
REMARK  105  A    between atoms: _276  and  _277
REMARK  106  A    between atoms: _282  and  _284
REMARK  107  A    between atoms: _284  and  _285
REMARK  108  A    between atoms: _284  and  _287
REMARK  109  A    between atoms: _287  and  _288
REMARK                            x       y       z     vdW  Elec       q    Type
REMARK                         _______ _______ _______ _____ _____    ______ ____
ROOT
ATOM      1  CA  VAL A   1       0.459 -22.705  11.680  0.00  0.00    +0.133 C 
ENDROOT
BRANCH   1   2
ATOM      2  CB  VAL A   1       1.205 -23.690  10.746  0.00  0.00    +0.023 C 
ATOM      3  CG2 VAL A   1       2.705 -23.505  10.861  0.00  0.00    +0.002 C 
ATOM      4  CG1 VAL A   1       0.747 -23.481   9.311  0.00  0.00    +0.002 C 
ENDBRANCH   1   2
BRANCH   1   5
ATOM      5  N   VAL A   1      -0.964 -23.014  11.698  0.00  0.00    -0.239 NA
ATOM      6  H   VAL A   1      -1.631 -22.406  11.182  0.00  0.00    +0.142 HD
ENDBRANCH   1   5
BRANCH   1   7
ATOM      7  C   VAL A   1       0.726 -21.275  11.210  0.00  0.00    +0.224 C 
ATOM      8  O   VAL A   1      -0.101 -20.670  10.532  0.00  0.00    -0.287 OA
ENDBRANCH   1   7
TORSDOF 3
REMARK  Name = ../refined-set-2016/3m3o/3m3o_pocket.pdb
REMARK  109 active torsions:
REMARK  status: ('A' for Active; 'I' for Inactive)
REMARK    1  A    between atoms: _1  and  _3
REMARK    2  A    between atoms: _3  and  _4
REMARK    3  A    between atoms: _6  and  _8
REMARK    4  A    between atoms: _8  and  _9
REMARK    5  A    between atoms: _8  and  _11
REMARK    6  A    between atoms: _11  and  _12
REMARK    7  A    between atoms: _18  and  _19
REMARK    8  A    between atoms: _24  and  _26
REMARK    9  A    between atoms: _26  and  _27
REMARK   10  A    between atoms: _26  and  _29
REMARK   11  A    between atoms: _29  and  _30
REMARK   12  A    between atoms: _35  and  _37
REMARK   13  A    between atoms: _37  and  _38
REMARK   14  A    between atoms: _37  and  _40
REMARK   15  A    between atoms: _40  and  _41
REMARK   16  A    between atoms: _44  and  _46
REMARK   17  A    between atoms: _46  and  _47
REMARK   18  A    between atoms: _46  and  _49
REMARK   19  A    between atoms: _49  and  _50
REMARK   20  A    between atoms: _53  and  _55
REMARK   21  A    between atoms: _55  and  _56
REMARK   22  A    between atoms: _55  and  _58
REMARK   23  A    between atoms: _58  and  _59
REMARK   24  A    between atoms: _64  and  _66
REMARK   25  A    between atoms: _66  and  _67
REMARK   26  A    between atoms: _66  and  _69
REMARK   27  A    between atoms: _69  and  _70
REMARK   28  A    between atoms: _75  and  _76
REMARK   29  A    between atoms: _78  and  _80
REMARK   30  A    between atoms: _80  and  _81
REMARK   31  A    between atoms: _80  and  _83
REMARK   32  A    between atoms: _83  and  _84
REMARK   33  A    between atoms: _89  and  _91
REMARK   34  A    between atoms: _91  and  _92
REMARK   35  A    between atoms: _91  and  _94
REMARK   36  A    between atoms: _94  and  _95
REMARK   37  A    between atoms: _98  and  _100
REMARK   38  A    between atoms: _100  and  _101
REMARK   39  A    between atoms: _104  and  _106
REMARK   40  A    between atoms: _106  and  _107
REMARK   41  A    between atoms: _106  and  _109
REMARK   42  A    between atoms: _109  and  _110
REMARK   43  A    between atoms: _116  and  _118
REMARK   44  A    between atoms: _118  and  _119
REMARK   45  A    between atoms: _118  and  _121
REMARK   46  A    between atoms: _121  and  _122
REMARK   47  A    between atoms: _122  and  _123
REMARK   48  A    between atoms: _123  and  _124
REMARK   49  A    between atoms: _133  and  _135
REMARK   50  A    between atoms: _135  and  _136
REMARK   51  A    between atoms: _135  and  _138
REMARK   52  A    between atoms: _138  and  _139
REMARK   53  A    between atoms: _139  and  _140
REMARK   54  A    between atoms: _145  and  _147
REMARK   55  A    between atoms: _147  and  _148
REMARK   56  A    between atoms: _147  and  _150
REMARK   57  A    between atoms: _150  and  _151
REMARK   58  A    between atoms: _151  and  _152
REMARK   59  A    between atoms: _155  and  _157
REMARK   60  A    between atoms: _157  and  _158
REMARK   61  A    between atoms: _157  and  _160
REMARK   62  A    between atoms: _163  and  _165
REMARK   63  A    between atoms: _165  and  _166
REMARK   64  A    between atoms: _165  and  _168
REMARK   65  A    between atoms: _168  and  _169
REMARK   66  A    between atoms: _172  and  _174
REMARK   67  A    between atoms: _174  and  _175
REMARK   68  A    between atoms: _174  and  _177
REMARK   69  A    between atoms: _177  and  _178
REMARK   70  A    between atoms: _184  and  _186
REMARK   71  A    between atoms: _186  and  _187
REMARK   72  A    between atoms: _186  and  _189
REMARK   73  A    between atoms: _189  and  _190
REMARK   74  A    between atoms: _195  and  _197
REMARK   75  A    between atoms: _197  and  _198
REMARK   76  A    between atoms: _197  and  _200
REMARK   77  A    between atoms: _200  and  _201
REMARK   78  A    between atoms: _203  and  _205
REMARK   79  A    between atoms: _205  and  _206
REMARK   80  A    between atoms: _205  and  _208
REMARK   81  A    between atoms: _208  and  _209
REMARK   82  A    between atoms: _209  and  _210
REMARK   83  A    between atoms: _210  and  _211
REMARK   84  A    between atoms: _221  and  _222
REMARK   85  A    between atoms: _227  and  _229
REMARK   86  A    between atoms: _229  and  _230
REMARK   87  A    between atoms: _229  and  _232
REMARK   88  A    between atoms: _232  and  _233
REMARK   89  A    between atoms: _243  and  _245
REMARK   90  A    between atoms: _245  and  _246
REMARK   91  A    between atoms: _245  and  _248
REMARK   92  A    between atoms: _248  and  _249
REMARK   93  A    between atoms: _252  and  _254
REMARK   94  A    between atoms: _254  and  _255
REMARK   95  A    between atoms: _254  and  _257
REMARK   96  A    between atoms: _260  and  _262
REMARK   97  A    between atoms: _262  and  _263
REMARK   98  A    between atoms: _262  and  _265
REMARK   99  A    between atoms: _265  and  _266
REMARK  100  A    between atoms: _266  and  _267
REMARK  101  A    between atoms: _270  and  _272
REMARK  102  A    between atoms: _272  and  _273
REMARK  103  A    between atoms: _272  and  _275
REMARK  104  A    between atoms: _275  and  _276
REMARK  105  A    between atoms: _276  and  _277
REMARK  106  A    between atoms: _282  and  _284
REMARK  107  A    between atoms: _284  and  _285
REMARK  108  A    between atoms: _284  and  _287
REMARK  109  A    between atoms: _287  and  _288
REMARK                            x       y       z     vdW  Elec       q    Type
REMARK                         _______ _______ _______ _____ _____    ______ ____
ROOT
ATOM      1  CA  ASN A   3       9.270 -16.403   4.441  0.00  0.00    +0.158 C 
ENDROOT
BRANCH   1   4
ATOM      2  C   PHE A   2       8.483 -17.228   6.593  0.00  0.00    +0.241 C 
ATOM      3  O   PHE A   2       9.088 -18.296   6.457  0.00  0.00    -0.273 OA
ATOM      4  N   ASN A   3       8.508 -16.260   5.681  0.00  0.00    -0.297 N 
ATOM      5  H   ASN A   3       7.975 -15.384   5.853  0.00  0.00    +0.150 HD
BRANCH   2   6
ATOM      6  CA  PHE A   2       7.640 -16.970   7.840  0.00  0.00    +0.153 C 
BRANCH   6   9
ATOM      7  C   ILE A   1       5.414 -17.954   8.081  0.00  0.00    +0.238 C 
ATOM      8  O   ILE A   1       4.842 -16.856   8.106  0.00  0.00    -0.274 OA
ATOM      9  N   PHE A   2       6.731 -18.098   7.980  0.00  0.00    -0.297 N 
ATOM     10  H   PHE A   2       7.130 -19.058   8.002  0.00  0.00    +0.150 HD
BRANCH   7  11
ATOM     11  CA  ILE A   1       4.626 -19.252   8.182  0.00  0.00    +0.145 C 
BRANCH  11  12
ATOM     12  CB  ILE A   1       4.124 -19.652   6.752  0.00  0.00    +0.025 C 
ATOM     13  CG2 ILE A   1       5.169 -19.313   5.691  0.00  0.00    +0.002 C 
BRANCH  12  14
ATOM     14  CG1 ILE A   1       3.824 -21.151   6.697  0.00  0.00    +0.002 C 
ATOM     15  CD1 ILE A   1       2.727 -21.591   7.617  0.00  0.00    +0.000 C 
ENDBRANCH  12  14
ENDBRANCH  11  12
BRANCH  11  16
ATOM     16  N   ILE A   1       3.508 -19.125   9.109  0.00  0.00    -0.238 NA
ATOM     17  H   ILE A   1       2.644 -18.642   8.790  0.00  0.00    +0.142 HD
ENDBRANCH  11  16
ENDBRANCH   7  11
ENDBRANCH   6   9
BRANCH   6  18
ATOM     18  CB  PHE A   2       8.543 -16.847   9.067  0.00  0.00    +0.055 C 
BRANCH  18  19
ATOM     19  CG  PHE A   2       7.789 -16.705  10.363  0.00  0.00    -0.020 A 
ATOM     20  CD2 PHE A   2       7.300 -17.828  11.027  0.00  0.00    -0.004 A 
ATOM     21  CE2 PHE A   2       6.585 -17.702  12.222  0.00  0.00    -0.000 A 
ATOM     22  CZ  PHE A   2       6.352 -16.432  12.766  0.00  0.00    -0.000 A 
ATOM     23  CE1 PHE A   2       6.835 -15.299  12.109  0.00  0.00    -0.000 A 
ATOM     24  CD1 PHE A   2       7.551 -15.443  10.911  0.00  0.00    -0.004 A 
ENDBRANCH  18  19
ENDBRANCH   6  18
ENDBRANCH   2   6
ENDBRANCH   1   4
BRANCH   1  25
ATOM     25  C   ASN A   3       9.708 -15.031   3.941  0.00  0.00    +0.241 C 
ATOM     26  O   ASN A   3       9.383 -14.008   4.544  0.00  0.00    -0.273 OA
ATOM     27  N   SER A   4      10.461 -15.029   2.845  0.00  0.00    -0.295 N 
ATOM     28  H   SER A   4      10.717 -15.942   2.418  0.00  0.00    +0.150 HD
BRANCH  27  29
ATOM     29  CA  SER A   4      10.945 -13.806   2.214  0.00  0.00    +0.178 C 
BRANCH  29  30
ATOM     30  C   SER A   4      10.807 -14.056   0.715  0.00  0.00    +0.243 C 
ATOM     31  O   SER A   4      10.575 -15.189   0.294  0.00  0.00    -0.273 OA
ATOM     32  N   ARG A   5      10.969 -13.014  -0.091  0.00  0.00    -0.298 N 
ATOM     33  H   ARG A   5      11.210 -12.085   0.309  0.00  0.00    +0.150 HD
BRANCH  32  34
ATOM     34  CA  ARG A   5      10.812 -13.163  -1.529  0.00  0.00    +0.137 C 
BRANCH  34  35
ATOM     35  C   ARG A   5      11.375 -11.939  -2.246  0.00  0.00    +0.227 C 
ATOM     36  O   ARG A   5      11.081 -10.809  -1.862  0.00  0.00    -0.286 OA
ENDBRANCH  34  35
BRANCH  34  37
ATOM     37  CB  ARG A   5       9.318 -13.314  -1.818  0.00  0.00    +0.031 C 
BRANCH  37  38
ATOM     38  CG  ARG A   5       8.904 -13.430  -3.256  0.00  0.00    +0.045 C 
BRANCH  38  39
ATOM     39  CD  ARG A   5       7.417 -13.133  -3.339  0.00  0.00    +0.174 C 
BRANCH  39  40
ATOM     40  NE  ARG A   5       6.820 -13.571  -4.590  0.00  0.00    -0.265 N 
ATOM     41  CZ  ARG A   5       5.553 -13.348  -4.927  0.00  0.00    +0.342 C 
ATOM     42  NH2 ARG A   5       4.757 -12.673  -4.106  0.00  0.00    -0.292 N 
ATOM     43 HH21 ARG A   5       5.124 -12.319  -3.200  0.00  0.00    +0.255 HD
ATOM     44 HH22 ARG A   5       3.766 -12.498  -4.369  0.00  0.00    +0.255 HD
ATOM     45  NH1 ARG A   5       5.084 -13.789  -6.090  0.00  0.00    -0.292 N 
ATOM     46 HH11 ARG A   5       4.093 -13.613  -6.351  0.00  0.00    +0.255 HD
ATOM     47 HH12 ARG A   5       5.708 -14.310  -6.739  0.00  0.00    +0.255 HD
ATOM     48  HE  ARG A   5       7.420 -14.090  -5.262  0.00  0.00    +0.259 HD
ENDBRANCH  39  40
ENDBRANCH  38  39
ENDBRANCH  37  38
ENDBRANCH  34  37
ENDBRANCH  32  34
ENDBRANCH  29  30
BRANCH  29  49
ATOM     49  CB  SER A   4      12.413 -13.542   2.565  0.00  0.00    +0.166 C 
BRANCH  49  50
ATOM     50  OG  SER A   4      12.599 -13.431   3.964  0.00  0.00    -0.380 OA
ATOM     51  H   SER A   4      12.318 -14.274   4.401  0.00  0.00    +0.211 HD
ENDBRANCH  49  50
ENDBRANCH  29  49
ENDBRANCH  27  29
ENDBRANCH   1  25
BRANCH   1  52
ATOM     52  CB  ASN A   3       8.408 -17.090   3.368  0.00  0.00    +0.114 C 
BRANCH  52  53
ATOM     53  CG  ASN A   3       9.227 -17.959   2.411  0.00  0.00    +0.222 C 
ATOM     54  OD1 ASN A   3      10.457 -17.885   2.369  0.00  0.00    -0.275 OA
ATOM     55  ND2 ASN A   3       8.538 -18.781   1.635  0.00  0.00    -0.329 N 
ATOM     56 HD21 ASN A   3       7.501 -18.812   1.702  0.00  0.00    +0.145 HD
ATOM     57 HD22 ASN A   3       9.034 -19.395   0.958  0.00  0.00    +0.145 HD
ENDBRANCH  52  53
ENDBRANCH   1  52
TORSDOF 22
REMARK  Name = ../refined-set-2016/3m3o/3m3o_pocket.pdb
REMARK  109 active torsions:
REMARK  status: ('A' for Active; 'I' for Inactive)
REMARK    1  A    between atoms: _1  and  _3
REMARK    2  A    between atoms: _3  and  _4
REMARK    3  A    between atoms: _6  and  _8
REMARK    4  A    between atoms: _8  and  _9
REMARK    5  A    between atoms: _8  and  _11
REMARK    6  A    between atoms: _11  and  _12
REMARK    7  A    between atoms: _18  and  _19
REMARK    8  A    between atoms: _24  and  _26
REMARK    9  A    between atoms: _26  and  _27
REMARK   10  A    between atoms: _26  and  _29
REMARK   11  A    between atoms: _29  and  _30
REMARK   12  A    between atoms: _35  and  _37
REMARK   13  A    between atoms: _37  and  _38
REMARK   14  A    between atoms: _37  and  _40
REMARK   15  A    between atoms: _40  and  _41
REMARK   16  A    between atoms: _44  and  _46
REMARK   17  A    between atoms: _46  and  _47
REMARK   18  A    between atoms: _46  and  _49
REMARK   19  A    between atoms: _49  and  _50
REMARK   20  A    between atoms: _53  and  _55
REMARK   21  A    between atoms: _55  and  _56
REMARK   22  A    between atoms: _55  and  _58
REMARK   23  A    between atoms: _58  and  _59
REMARK   24  A    between atoms: _64  and  _66
REMARK   25  A    between atoms: _66  and  _67
REMARK   26  A    between atoms: _66  and  _69
REMARK   27  A    between atoms: _69  and  _70
REMARK   28  A    between atoms: _75  and  _76
REMARK   29  A    between atoms: _78  and  _80
REMARK   30  A    between atoms: _80  and  _81
REMARK   31  A    between atoms: _80  and  _83
REMARK   32  A    between atoms: _83  and  _84
REMARK   33  A    between atoms: _89  and  _91
REMARK   34  A    between atoms: _91  and  _92
REMARK   35  A    between atoms: _91  and  _94
REMARK   36  A    between atoms: _94  and  _95
REMARK   37  A    between atoms: _98  and  _100
REMARK   38  A    between atoms: _100  and  _101
REMARK   39  A    between atoms: _104  and  _106
REMARK   40  A    between atoms: _106  and  _107
REMARK   41  A    between atoms: _106  and  _109
REMARK   42  A    between atoms: _109  and  _110
REMARK   43  A    between atoms: _116  and  _118
REMARK   44  A    between atoms: _118  and  _119
REMARK   45  A    between atoms: _118  and  _121
REMARK   46  A    between atoms: _121  and  _122
REMARK   47  A    between atoms: _122  and  _123
REMARK   48  A    between atoms: _123  and  _124
REMARK   49  A    between atoms: _133  and  _135
REMARK   50  A    between atoms: _135  and  _136
REMARK   51  A    between atoms: _135  and  _138
REMARK   52  A    between atoms: _138  and  _139
REMARK   53  A    between atoms: _139  and  _140
REMARK   54  A    between atoms: _145  and  _147
REMARK   55  A    between atoms: _147  and  _148
REMARK   56  A    between atoms: _147  and  _150
REMARK   57  A    between atoms: _150  and  _151
REMARK   58  A    between atoms: _151  and  _152
REMARK   59  A    between atoms: _155  and  _157
REMARK   60  A    between atoms: _157  and  _158
REMARK   61  A    between atoms: _157  and  _160
REMARK   62  A    between atoms: _163  and  _165
REMARK   63  A    between atoms: _165  and  _166
REMARK   64  A    between atoms: _165  and  _168
REMARK   65  A    between atoms: _168  and  _169
REMARK   66  A    between atoms: _172  and  _174
REMARK   67  A    between atoms: _174  and  _175
REMARK   68  A    between atoms: _174  and  _177
REMARK   69  A    between atoms: _177  and  _178
REMARK   70  A    between atoms: _184  and  _186
REMARK   71  A    between atoms: _186  and  _187
REMARK   72  A    between atoms: _186  and  _189
REMARK   73  A    between atoms: _189  and  _190
REMARK   74  A    between atoms: _195  and  _197
REMARK   75  A    between atoms: _197  and  _198
REMARK   76  A    between atoms: _197  and  _200
REMARK   77  A    between atoms: _200  and  _201
REMARK   78  A    between atoms: _203  and  _205
REMARK   79  A    between atoms: _205  and  _206
REMARK   80  A    between atoms: _205  and  _208
REMARK   81  A    between atoms: _208  and  _209
REMARK   82  A    between atoms: _209  and  _210
REMARK   83  A    between atoms: _210  and  _211
REMARK   84  A    between atoms: _221  and  _222
REMARK   85  A    between atoms: _227  and  _229
REMARK   86  A    between atoms: _229  and  _230
REMARK   87  A    between atoms: _229  and  _232
REMARK   88  A    between atoms: _232  and  _233
REMARK   89  A    between atoms: _243  and  _245
REMARK   90  A    between atoms: _245  and  _246
REMARK   91  A    between atoms: _245  and  _248
REMARK   92  A    between atoms: _248  and  _249
REMARK   93  A    between atoms: _252  and  _254
REMARK   94  A    between atoms: _254  and  _255
REMARK   95  A    between atoms: _254  and  _257
REMARK   96  A    between atoms: _260  and  _262
REMARK   97  A    between atoms: _262  and  _263
REMARK   98  A    between atoms: _262  and  _265
REMARK   99  A    between atoms: _265  and  _266
REMARK  100  A    between atoms: _266  and  _267
REMARK  101  A    between atoms: _270  and  _272
REMARK  102  A    between atoms: _272  and  _273
REMARK  103  A    between atoms: _272  and  _275
REMARK  104  A    between atoms: _275  and  _276
REMARK  105  A    between atoms: _276  and  _277
REMARK  106  A    between atoms: _282  and  _284
REMARK  107  A    between atoms: _284  and  _285
REMARK  108  A    between atoms: _284  and  _287
REMARK  109  A    between atoms: _287  and  _288
REMARK                            x       y       z     vdW  Elec       q    Type
REMARK                         _______ _______ _______ _____ _____    ______ ____
ROOT
ATOM      1  C   LEU A   3      11.794 -19.695   0.479  0.00  0.00    +0.241 C 
ATOM      2  N   VAL A   4      12.761 -20.043   1.324  0.00  0.00    -0.297 N 
ATOM      3  H   VAL A   4      13.676 -19.551   1.270  0.00  0.00    +0.150 HD
ATOM      4  O   LEU A   3      10.671 -20.203   0.490  0.00  0.00    -0.273 OA
ENDROOT
BRANCH   1   5
ATOM      5  CA  LEU A   3      12.143 -18.613  -0.530  0.00  0.00    +0.149 C 
BRANCH   5   7
ATOM      6  C   TRP A   2      10.265 -18.300  -2.012  0.00  0.00    +0.241 C 
ATOM      7  N   LEU A   3      10.977 -17.873  -0.977  0.00  0.00    -0.297 N 
ATOM      8  H   LEU A   3      10.698 -17.002  -0.482  0.00  0.00    +0.150 HD
ATOM      9  O   TRP A   2      10.544 -19.321  -2.639  0.00  0.00    -0.273 OA
BRANCH   6  10
ATOM     10  CA  TRP A   2       9.070 -17.457  -2.416  0.00  0.00    +0.153 C 
BRANCH  10  12
ATOM     11  C   PRO A   1      10.011 -16.900  -4.569  0.00  0.00    +0.239 C 
ATOM     12  N   TRP A   2       9.044 -17.481  -3.866  0.00  0.00    -0.297 N 
ATOM     13  H   TRP A   2       8.262 -17.957  -4.360  0.00  0.00    +0.150 HD
ATOM     14  O   PRO A   1      10.936 -16.282  -4.046  0.00  0.00    -0.274 OA
BRANCH  11  16
ATOM     15  N   PRO A   1      10.716 -15.976  -6.738  0.00  0.00    -0.210 NA
ATOM     16  CA  PRO A   1       9.921 -17.019  -6.089  0.00  0.00    +0.149 C 
ATOM     17  CB  PRO A   1      10.581 -18.288  -6.590  0.00  0.00    +0.028 C 
ATOM     18  CG  PRO A   1      12.044 -17.898  -6.509  0.00  0.00    +0.021 C 
ATOM     19  CD  PRO A   1      12.047 -16.494  -7.116  0.00  0.00    +0.089 C 
ENDBRANCH  11  16
ENDBRANCH  10  12
BRANCH  10  20
ATOM     20  CB  TRP A   2       7.786 -18.057  -1.841  0.00  0.00    +0.057 C 
BRANCH  20  21
ATOM     21  CG  TRP A   2       6.662 -17.082  -1.822  0.00  0.00    -0.002 A 
ATOM     22  CD2 TRP A   2       6.527 -15.956  -0.944  0.00  0.00    +0.013 A 
ATOM     23  CE3 TRP A   2       7.289 -15.458   0.120  0.00  0.00    +0.001 A 
ATOM     24  CZ3 TRP A   2       6.858 -14.307   0.768  0.00  0.00    +0.000 A 
ATOM     25  CH2 TRP A   2       5.683 -13.650   0.370  0.00  0.00    +0.001 A 
ATOM     26  CZ2 TRP A   2       4.919 -14.116  -0.667  0.00  0.00    +0.017 A 
ATOM     27  CE2 TRP A   2       5.351 -15.272  -1.319  0.00  0.00    +0.056 A 
ATOM     28  NE1 TRP A   2       4.799 -15.954  -2.372  0.00  0.00    -0.352 N 
ATOM     29  HE1 TRP A   2       3.923 -15.693  -2.868  0.00  0.00    +0.166 HD
ATOM     30  CD1 TRP A   2       5.591 -17.041  -2.668  0.00  0.00    +0.068 A 
ENDBRANCH  20  21
ENDBRANCH  10  20
ENDBRANCH   6  10
ENDBRANCH   5   7
BRANCH   5  31
ATOM     31  CB  LEU A   3      13.188 -17.650   0.042  0.00  0.00    +0.029 C 
BRANCH  31  32
ATOM     32  CG  LEU A   3      13.624 -16.586  -0.970  0.00  0.00    +0.002 C 
ATOM     33  CD2 LEU A   3      14.777 -15.788  -0.409  0.00  0.00    +0.000 C 
ATOM     34  CD1 LEU A   3      14.030 -17.255  -2.290  0.00  0.00    +0.000 C 
ENDBRANCH  31  32
ENDBRANCH   5  31
ENDBRANCH   1   5
BRANCH   2  35
ATOM     35  CA  VAL A   4      12.583 -21.092   2.324  0.00  0.00    +0.149 C 
BRANCH  35  36
ATOM     36  C   VAL A   4      11.620 -20.732   3.453  0.00  0.00    +0.241 C 
ATOM     37  O   VAL A   4      11.880 -19.821   4.241  0.00  0.00    -0.273 OA
ATOM     38  N   GLU A   5      10.515 -21.467   3.525  0.00  0.00    -0.297 N 
ATOM     39  H   GLU A   5      10.368 -22.222   2.825  0.00  0.00    +0.150 HD
BRANCH  38  40
ATOM     40  CA  GLU A   5       9.502 -21.253   4.551  0.00  0.00    +0.149 C 
BRANCH  40  41
ATOM     41  C   GLU A   5       9.921 -21.772   5.918  0.00  0.00    +0.241 C 
ATOM     42  N   GLN A   6       9.681 -20.962   6.944  0.00  0.00    -0.298 N 
ATOM     43  H   GLN A   6       9.282 -20.020   6.755  0.00  0.00    +0.150 HD
ATOM     44  O   GLU A   5      10.449 -22.879   6.037  0.00  0.00    -0.273 OA
BRANCH  42  45
ATOM     45  CA  GLN A   6       9.956 -21.344   8.326  0.00  0.00    +0.137 C 
BRANCH  45  46
ATOM     46  C   GLN A   6       8.556 -21.448   8.919  0.00  0.00    +0.227 C 
ATOM     47  O   GLN A   6       7.703 -20.620   8.621  0.00  0.00    -0.286 OA
ENDBRANCH  45  46
BRANCH  45  48
ATOM     48  CB  GLN A   6      10.755 -20.265   9.056  0.00  0.00    +0.037 C 
BRANCH  48  49
ATOM     49  CG  GLN A   6      12.213 -20.158   8.639  0.00  0.00    +0.087 C 
BRANCH  49  50
ATOM     50  CD  GLN A   6      12.940 -21.484   8.721  0.00  0.00    +0.219 C 
ATOM     51  OE1 GLN A   6      12.709 -22.276   9.634  0.00  0.00    -0.275 OA
ATOM     52  NE2 GLN A   6      13.835 -21.729   7.771  0.00  0.00    -0.329 N 
ATOM     53 HE21 GLN A   6      14.373 -22.619   7.780  0.00  0.00    +0.145 HD
ATOM     54 HE22 GLN A   6      13.998 -21.031   7.018  0.00  0.00    +0.145 HD
ENDBRANCH  49  50
ENDBRANCH  48  49
ENDBRANCH  45  48
ENDBRANCH  42  45
ENDBRANCH  40  41
BRANCH  40  55
ATOM     55  CB  GLU A   5       8.194 -21.960   4.180  0.00  0.00    +0.041 C 
BRANCH  55  56
ATOM     56  CG  GLU A   5       7.251 -21.201   3.272  0.00  0.00    +0.116 C 
BRANCH  56  57
ATOM     57  CD  GLU A   5       5.913 -21.909   3.148  0.00  0.00    +0.365 C 
ATOM     58  OE2 GLU A   5       5.810 -23.047   3.645  0.00  0.00    -0.246 OA
ATOM     59  OE1 GLU A   5       4.964 -21.341   2.565  0.00  0.00    -0.246 OA
ENDBRANCH  56  57
ENDBRANCH  55  56
ENDBRANCH  40  55
ENDBRANCH  38  40
ENDBRANCH  35  36
BRANCH  35  60
ATOM     60  CB  VAL A   4      13.940 -21.486   2.947  0.00  0.00    +0.027 C 
ATOM     61  CG2 VAL A   4      13.748 -22.605   3.951  0.00  0.00    +0.002 C 
ATOM     62  CG1 VAL A   4      14.912 -21.902   1.843  0.00  0.00    +0.002 C 
ENDBRANCH  35  60
ENDBRANCH   2  35
TORSDOF 22
REMARK  Name = ../refined-set-2016/3m3o/3m3o_pocket.pdb
REMARK  109 active torsions:
REMARK  status: ('A' for Active; 'I' for Inactive)
REMARK    1  A    between atoms: _1  and  _3
REMARK    2  A    between atoms: _3  and  _4
REMARK    3  A    between atoms: _6  and  _8
REMARK    4  A    between atoms: _8  and  _9
REMARK    5  A    between atoms: _8  and  _11
REMARK    6  A    between atoms: _11  and  _12
REMARK    7  A    between atoms: _18  and  _19
REMARK    8  A    between atoms: _24  and  _26
REMARK    9  A    between atoms: _26  and  _27
REMARK   10  A    between atoms: _26  and  _29
REMARK   11  A    between atoms: _29  and  _30
REMARK   12  A    between atoms: _35  and  _37
REMARK   13  A    between atoms: _37  and  _38
REMARK   14  A    between atoms: _37  and  _40
REMARK   15  A    between atoms: _40  and  _41
REMARK   16  A    between atoms: _44  and  _46
REMARK   17  A    between atoms: _46  and  _47
REMARK   18  A    between atoms: _46  and  _49
REMARK   19  A    between atoms: _49  and  _50
REMARK   20  A    between atoms: _53  and  _55
REMARK   21  A    between atoms: _55  and  _56
REMARK   22  A    between atoms: _55  and  _58
REMARK   23  A    between atoms: _58  and  _59
REMARK   24  A    between atoms: _64  and  _66
REMARK   25  A    between atoms: _66  and  _67
REMARK   26  A    between atoms: _66  and  _69
REMARK   27  A    between atoms: _69  and  _70
REMARK   28  A    between atoms: _75  and  _76
REMARK   29  A    between atoms: _78  and  _80
REMARK   30  A    between atoms: _80  and  _81
REMARK   31  A    between atoms: _80  and  _83
REMARK   32  A    between atoms: _83  and  _84
REMARK   33  A    between atoms: _89  and  _91
REMARK   34  A    between atoms: _91  and  _92
REMARK   35  A    between atoms: _91  and  _94
REMARK   36  A    between atoms: _94  and  _95
REMARK   37  A    between atoms: _98  and  _100
REMARK   38  A    between atoms: _100  and  _101
REMARK   39  A    between atoms: _104  and  _106
REMARK   40  A    between atoms: _106  and  _107
REMARK   41  A    between atoms: _106  and  _109
REMARK   42  A    between atoms: _109  and  _110
REMARK   43  A    between atoms: _116  and  _118
REMARK   44  A    between atoms: _118  and  _119
REMARK   45  A    between atoms: _118  and  _121
REMARK   46  A    between atoms: _121  and  _122
REMARK   47  A    between atoms: _122  and  _123
REMARK   48  A    between atoms: _123  and  _124
REMARK   49  A    between atoms: _133  and  _135
REMARK   50  A    between atoms: _135  and  _136
REMARK   51  A    between atoms: _135  and  _138
REMARK   52  A    between atoms: _138  and  _139
REMARK   53  A    between atoms: _139  and  _140
REMARK   54  A    between atoms: _145  and  _147
REMARK   55  A    between atoms: _147  and  _148
REMARK   56  A    between atoms: _147  and  _150
REMARK   57  A    between atoms: _150  and  _151
REMARK   58  A    between atoms: _151  and  _152
REMARK   59  A    between atoms: _155  and  _157
REMARK   60  A    between atoms: _157  and  _158
REMARK   61  A    between atoms: _157  and  _160
REMARK   62  A    between atoms: _163  and  _165
REMARK   63  A    between atoms: _165  and  _166
REMARK   64  A    between atoms: _165  and  _168
REMARK   65  A    between atoms: _168  and  _169
REMARK   66  A    between atoms: _172  and  _174
REMARK   67  A    between atoms: _174  and  _175
REMARK   68  A    between atoms: _174  and  _177
REMARK   69  A    between atoms: _177  and  _178
REMARK   70  A    between atoms: _184  and  _186
REMARK   71  A    between atoms: _186  and  _187
REMARK   72  A    between atoms: _186  and  _189
REMARK   73  A    between atoms: _189  and  _190
REMARK   74  A    between atoms: _195  and  _197
REMARK   75  A    between atoms: _197  and  _198
REMARK   76  A    between atoms: _197  and  _200
REMARK   77  A    between atoms: _200  and  _201
REMARK   78  A    between atoms: _203  and  _205
REMARK   79  A    between atoms: _205  and  _206
REMARK   80  A    between atoms: _205  and  _208
REMARK   81  A    between atoms: _208  and  _209
REMARK   82  A    between atoms: _209  and  _210
REMARK   83  A    between atoms: _210  and  _211
REMARK   84  A    between atoms: _221  and  _222
REMARK   85  A    between atoms: _227  and  _229
REMARK   86  A    between atoms: _229  and  _230
REMARK   87  A    between atoms: _229  and  _232
REMARK   88  A    between atoms: _232  and  _233
REMARK   89  A    between atoms: _243  and  _245
REMARK   90  A    between atoms: _245  and  _246
REMARK   91  A    between atoms: _245  and  _248
REMARK   92  A    between atoms: _248  and  _249
REMARK   93  A    between atoms: _252  and  _254
REMARK   94  A    between atoms: _254  and  _255
REMARK   95  A    between atoms: _254  and  _257
REMARK   96  A    between atoms: _260  and  _262
REMARK   97  A    between atoms: _262  and  _263
REMARK   98  A    between atoms: _262  and  _265
REMARK   99  A    between atoms: _265  and  _266
REMARK  100  A    between atoms: _266  and  _267
REMARK  101  A    between atoms: _270  and  _272
REMARK  102  A    between atoms: _272  and  _273
REMARK  103  A    between atoms: _272  and  _275
REMARK  104  A    between atoms: _275  and  _276
REMARK  105  A    between atoms: _276  and  _277
REMARK  106  A    between atoms: _282  and  _284
REMARK  107  A    between atoms: _284  and  _285
REMARK  108  A    between atoms: _284  and  _287
REMARK  109  A    between atoms: _287  and  _288
REMARK                            x       y       z     vdW  Elec       q    Type
REMARK                         _______ _______ _______ _____ _____    ______ ____
ROOT
ATOM      1  CB  ASN A   1      -2.665  -9.135   2.625  0.00  0.00    +0.110 C 
ENDROOT
BRANCH   1   2
ATOM      2  CG  ASN A   1      -3.556  -9.541   1.467  0.00  0.00    +0.221 C 
ATOM      3  OD1 ASN A   1      -4.607  -8.940   1.236  0.00  0.00    -0.275 OA
ATOM      4  ND2 ASN A   1      -3.130 -10.550   0.720  0.00  0.00    -0.329 N 
ATOM      5 HD21 ASN A   1      -2.236 -11.028   0.953  0.00  0.00    +0.145 HD
ATOM      6 HD22 ASN A   1      -3.690 -10.863  -0.099  0.00  0.00    +0.145 HD
ENDBRANCH   1   2
BRANCH   1   7
ATOM      7  CA  ASN A   1      -3.459  -8.554   3.799  0.00  0.00    +0.142 C 
BRANCH   7   8
ATOM      8  N   ASN A   1      -2.543  -8.001   4.781  0.00  0.00    -0.239 NA
ATOM      9  H   ASN A   1      -1.794  -8.601   5.181  0.00  0.00    +0.142 HD
ENDBRANCH   7   8
BRANCH   7  10
ATOM     10  C   ASN A   1      -4.408  -9.607   4.368  0.00  0.00    +0.225 C 
ATOM     11  O   ASN A   1      -4.014 -10.443   5.186  0.00  0.00    -0.287 OA
ENDBRANCH   7  10
ENDBRANCH   1   7
TORSDOF 4
REMARK  Name = ../refined-set-2016/3m3o/3m3o_pocket.pdb
REMARK  109 active torsions:
REMARK  status: ('A' for Active; 'I' for Inactive)
REMARK    1  A    between atoms: _1  and  _3
REMARK    2  A    between atoms: _3  and  _4
REMARK    3  A    between atoms: _6  and  _8
REMARK    4  A    between atoms: _8  and  _9
REMARK    5  A    between atoms: _8  and  _11
REMARK    6  A    between atoms: _11  and  _12
REMARK    7  A    between atoms: _18  and  _19
REMARK    8  A    between atoms: _24  and  _26
REMARK    9  A    between atoms: _26  and  _27
REMARK   10  A    between atoms: _26  and  _29
REMARK   11  A    between atoms: _29  and  _30
REMARK   12  A    between atoms: _35  and  _37
REMARK   13  A    between atoms: _37  and  _38
REMARK   14  A    between atoms: _37  and  _40
REMARK   15  A    between atoms: _40  and  _41
REMARK   16  A    between atoms: _44  and  _46
REMARK   17  A    between atoms: _46  and  _47
REMARK   18  A    between atoms: _46  and  _49
REMARK   19  A    between atoms: _49  and  _50
REMARK   20  A    between atoms: _53  and  _55
REMARK   21  A    between atoms: _55  and  _56
REMARK   22  A    between atoms: _55  and  _58
REMARK   23  A    between atoms: _58  and  _59
REMARK   24  A    between atoms: _64  and  _66
REMARK   25  A    between atoms: _66  and  _67
REMARK   26  A    between atoms: _66  and  _69
REMARK   27  A    between atoms: _69  and  _70
REMARK   28  A    between atoms: _75  and  _76
REMARK   29  A    between atoms: _78  and  _80
REMARK   30  A    between atoms: _80  and  _81
REMARK   31  A    between atoms: _80  and  _83
REMARK   32  A    between atoms: _83  and  _84
REMARK   33  A    between atoms: _89  and  _91
REMARK   34  A    between atoms: _91  and  _92
REMARK   35  A    between atoms: _91  and  _94
REMARK   36  A    between atoms: _94  and  _95
REMARK   37  A    between atoms: _98  and  _100
REMARK   38  A    between atoms: _100  and  _101
REMARK   39  A    between atoms: _104  and  _106
REMARK   40  A    between atoms: _106  and  _107
REMARK   41  A    between atoms: _106  and  _109
REMARK   42  A    between atoms: _109  and  _110
REMARK   43  A    between atoms: _116  and  _118
REMARK   44  A    between atoms: _118  and  _119
REMARK   45  A    between atoms: _118  and  _121
REMARK   46  A    between atoms: _121  and  _122
REMARK   47  A    between atoms: _122  and  _123
REMARK   48  A    between atoms: _123  and  _124
REMARK   49  A    between atoms: _133  and  _135
REMARK   50  A    between atoms: _135  and  _136
REMARK   51  A    between atoms: _135  and  _138
REMARK   52  A    between atoms: _138  and  _139
REMARK   53  A    between atoms: _139  and  _140
REMARK   54  A    between atoms: _145  and  _147
REMARK   55  A    between atoms: _147  and  _148
REMARK   56  A    between atoms: _147  and  _150
REMARK   57  A    between atoms: _150  and  _151
REMARK   58  A    between atoms: _151  and  _152
REMARK   59  A    between atoms: _155  and  _157
REMARK   60  A    between atoms: _157  and  _158
REMARK   61  A    between atoms: _157  and  _160
REMARK   62  A    between atoms: _163  and  _165
REMARK   63  A    between atoms: _165  and  _166
REMARK   64  A    between atoms: _165  and  _168
REMARK   65  A    between atoms: _168  and  _169
REMARK   66  A    between atoms: _172  and  _174
REMARK   67  A    between atoms: _174  and  _175
REMARK   68  A    between atoms: _174  and  _177
REMARK   69  A    between atoms: _177  and  _178
REMARK   70  A    between atoms: _184  and  _186
REMARK   71  A    between atoms: _186  and  _187
REMARK   72  A    between atoms: _186  and  _189
REMARK   73  A    between atoms: _189  and  _190
REMARK   74  A    between atoms: _195  and  _197
REMARK   75  A    between atoms: _197  and  _198
REMARK   76  A    between atoms: _197  and  _200
REMARK   77  A    between atoms: _200  and  _201
REMARK   78  A    between atoms: _203  and  _205
REMARK   79  A    between atoms: _205  and  _206
REMARK   80  A    between atoms: _205  and  _208
REMARK   81  A    between atoms: _208  and  _209
REMARK   82  A    between atoms: _209  and  _210
REMARK   83  A    between atoms: _210  and  _211
REMARK   84  A    between atoms: _221  and  _222
REMARK   85  A    between atoms: _227  and  _229
REMARK   86  A    between atoms: _229  and  _230
REMARK   87  A    between atoms: _229  and  _232
REMARK   88  A    between atoms: _232  and  _233
REMARK   89  A    between atoms: _243  and  _245
REMARK   90  A    between atoms: _245  and  _246
REMARK   91  A    between atoms: _245  and  _248
REMARK   92  A    between atoms: _248  and  _249
REMARK   93  A    between atoms: _252  and  _254
REMARK   94  A    between atoms: _254  and  _255
REMARK   95  A    between atoms: _254  and  _257
REMARK   96  A    between atoms: _260  and  _262
REMARK   97  A    between atoms: _262  and  _263
REMARK   98  A    between atoms: _262  and  _265
REMARK   99  A    between atoms: _265  and  _266
REMARK  100  A    between atoms: _266  and  _267
REMARK  101  A    between atoms: _270  and  _272
REMARK  102  A    between atoms: _272  and  _273
REMARK  103  A    between atoms: _272  and  _275
REMARK  104  A    between atoms: _275  and  _276
REMARK  105  A    between atoms: _276  and  _277
REMARK  106  A    between atoms: _282  and  _284
REMARK  107  A    between atoms: _284  and  _285
REMARK  108  A    between atoms: _284  and  _287
REMARK  109  A    between atoms: _287  and  _288
REMARK                            x       y       z     vdW  Elec       q    Type
REMARK                         _______ _______ _______ _____ _____    ______ ____
ROOT
ATOM      1  O   HOH     1       0.596 -11.536   1.455  0.00  0.00    +0.000 OA
ENDROOT
TORSDOF 0
REMARK  Name = ../refined-set-2016/3m3o/3m3o_pocket.pdb
REMARK  109 active torsions:
REMARK  status: ('A' for Active; 'I' for Inactive)
REMARK    1  A    between atoms: _1  and  _3
REMARK    2  A    between atoms: _3  and  _4
REMARK    3  A    between atoms: _6  and  _8
REMARK    4  A    between atoms: _8  and  _9
REMARK    5  A    between atoms: _8  and  _11
REMARK    6  A    between atoms: _11  and  _12
REMARK    7  A    between atoms: _18  and  _19
REMARK    8  A    between atoms: _24  and  _26
REMARK    9  A    between atoms: _26  and  _27
REMARK   10  A    between atoms: _26  and  _29
REMARK   11  A    between atoms: _29  and  _30
REMARK   12  A    between atoms: _35  and  _37
REMARK   13  A    between atoms: _37  and  _38
REMARK   14  A    between atoms: _37  and  _40
REMARK   15  A    between atoms: _40  and  _41
REMARK   16  A    between atoms: _44  and  _46
REMARK   17  A    between atoms: _46  and  _47
REMARK   18  A    between atoms: _46  and  _49
REMARK   19  A    between atoms: _49  and  _50
REMARK   20  A    between atoms: _53  and  _55
REMARK   21  A    between atoms: _55  and  _56
REMARK   22  A    between atoms: _55  and  _58
REMARK   23  A    between atoms: _58  and  _59
REMARK   24  A    between atoms: _64  and  _66
REMARK   25  A    between atoms: _66  and  _67
REMARK   26  A    between atoms: _66  and  _69
REMARK   27  A    between atoms: _69  and  _70
REMARK   28  A    between atoms: _75  and  _76
REMARK   29  A    between atoms: _78  and  _80
REMARK   30  A    between atoms: _80  and  _81
REMARK   31  A    between atoms: _80  and  _83
REMARK   32  A    between atoms: _83  and  _84
REMARK   33  A    between atoms: _89  and  _91
REMARK   34  A    between atoms: _91  and  _92
REMARK   35  A    between atoms: _91  and  _94
REMARK   36  A    between atoms: _94  and  _95
REMARK   37  A    between atoms: _98  and  _100
REMARK   38  A    between atoms: _100  and  _101
REMARK   39  A    between atoms: _104  and  _106
REMARK   40  A    between atoms: _106  and  _107
REMARK   41  A    between atoms: _106  and  _109
REMARK   42  A    between atoms: _109  and  _110
REMARK   43  A    between atoms: _116  and  _118
REMARK   44  A    between atoms: _118  and  _119
REMARK   45  A    between atoms: _118  and  _121
REMARK   46  A    between atoms: _121  and  _122
REMARK   47  A    between atoms: _122  and  _123
REMARK   48  A    between atoms: _123  and  _124
REMARK   49  A    between atoms: _133  and  _135
REMARK   50  A    between atoms: _135  and  _136
REMARK   51  A    between atoms: _135  and  _138
REMARK   52  A    between atoms: _138  and  _139
REMARK   53  A    between atoms: _139  and  _140
REMARK   54  A    between atoms: _145  and  _147
REMARK   55  A    between atoms: _147  and  _148
REMARK   56  A    between atoms: _147  and  _150
REMARK   57  A    between atoms: _150  and  _151
REMARK   58  A    between atoms: _151  and  _152
REMARK   59  A    between atoms: _155  and  _157
REMARK   60  A    between atoms: _157  and  _158
REMARK   61  A    between atoms: _157  and  _160
REMARK   62  A    between atoms: _163  and  _165
REMARK   63  A    between atoms: _165  and  _166
REMARK   64  A    between atoms: _165  and  _168
REMARK   65  A    between atoms: _168  and  _169
REMARK   66  A    between atoms: _172  and  _174
REMARK   67  A    between atoms: _174  and  _175
REMARK   68  A    between atoms: _174  and  _177
REMARK   69  A    between atoms: _177  and  _178
REMARK   70  A    between atoms: _184  and  _186
REMARK   71  A    between atoms: _186  and  _187
REMARK   72  A    between atoms: _186  and  _189
REMARK   73  A    between atoms: _189  and  _190
REMARK   74  A    between atoms: _195  and  _197
REMARK   75  A    between atoms: _197  and  _198
REMARK   76  A    between atoms: _197  and  _200
REMARK   77  A    between atoms: _200  and  _201
REMARK   78  A    between atoms: _203  and  _205
REMARK   79  A    between atoms: _205  and  _206
REMARK   80  A    between atoms: _205  and  _208
REMARK   81  A    between atoms: _208  and  _209
REMARK   82  A    between atoms: _209  and  _210
REMARK   83  A    between atoms: _210  and  _211
REMARK   84  A    between atoms: _221  and  _222
REMARK   85  A    between atoms: _227  and  _229
REMARK   86  A    between atoms: _229  and  _230
REMARK   87  A    between atoms: _229  and  _232
REMARK   88  A    between atoms: _232  and  _233
REMARK   89  A    between atoms: _243  and  _245
REMARK   90  A    between atoms: _245  and  _246
REMARK   91  A    between atoms: _245  and  _248
REMARK   92  A    between atoms: _248  and  _249
REMARK   93  A    between atoms: _252  and  _254
REMARK   94  A    between atoms: _254  and  _255
REMARK   95  A    between atoms: _254  and  _257
REMARK   96  A    between atoms: _260  and  _262
REMARK   97  A    between atoms: _262  and  _263
REMARK   98  A    between atoms: _262  and  _265
REMARK   99  A    between atoms: _265  and  _266
REMARK  100  A    between atoms: _266  and  _267
REMARK  101  A    between atoms: _270  and  _272
REMARK  102  A    between atoms: _272  and  _273
REMARK  103  A    between atoms: _272  and  _275
REMARK  104  A    between atoms: _275  and  _276
REMARK  105  A    between atoms: _276  and  _277
REMARK  106  A    between atoms: _282  and  _284
REMARK  107  A    between atoms: _284  and  _285
REMARK  108  A    between atoms: _284  and  _287
REMARK  109  A    between atoms: _287  and  _288
REMARK                            x       y       z     vdW  Elec       q    Type
REMARK                         _______ _______ _______ _____ _____    ______ ____
ROOT
ATOM      1  O   HOH     1       7.232 -18.619  -5.471  0.00  0.00    +0.000 OA
ENDROOT
TORSDOF 0
REMARK  Name = ../refined-set-2016/3m3o/3m3o_pocket.pdb
REMARK  109 active torsions:
REMARK  status: ('A' for Active; 'I' for Inactive)
REMARK    1  A    between atoms: _1  and  _3
REMARK    2  A    between atoms: _3  and  _4
REMARK    3  A    between atoms: _6  and  _8
REMARK    4  A    between atoms: _8  and  _9
REMARK    5  A    between atoms: _8  and  _11
REMARK    6  A    between atoms: _11  and  _12
REMARK    7  A    between atoms: _18  and  _19
REMARK    8  A    between atoms: _24  and  _26
REMARK    9  A    between atoms: _26  and  _27
REMARK   10  A    between atoms: _26  and  _29
REMARK   11  A    between atoms: _29  and  _30
REMARK   12  A    between atoms: _35  and  _37
REMARK   13  A    between atoms: _37  and  _38
REMARK   14  A    between atoms: _37  and  _40
REMARK   15  A    between atoms: _40  and  _41
REMARK   16  A    between atoms: _44  and  _46
REMARK   17  A    between atoms: _46  and  _47
REMARK   18  A    between atoms: _46  and  _49
REMARK   19  A    between atoms: _49  and  _50
REMARK   20  A    between atoms: _53  and  _55
REMARK   21  A    between atoms: _55  and  _56
REMARK   22  A    between atoms: _55  and  _58
REMARK   23  A    between atoms: _58  and  _59
REMARK   24  A    between atoms: _64  and  _66
REMARK   25  A    between atoms: _66  and  _67
REMARK   26  A    between atoms: _66  and  _69
REMARK   27  A    between atoms: _69  and  _70
REMARK   28  A    between atoms: _75  and  _76
REMARK   29  A    between atoms: _78  and  _80
REMARK   30  A    between atoms: _80  and  _81
REMARK   31  A    between atoms: _80  and  _83
REMARK   32  A    between atoms: _83  and  _84
REMARK   33  A    between atoms: _89  and  _91
REMARK   34  A    between atoms: _91  and  _92
REMARK   35  A    between atoms: _91  and  _94
REMARK   36  A    between atoms: _94  and  _95
REMARK   37  A    between atoms: _98  and  _100
REMARK   38  A    between atoms: _100  and  _101
REMARK   39  A    between atoms: _104  and  _106
REMARK   40  A    between atoms: _106  and  _107
REMARK   41  A    between atoms: _106  and  _109
REMARK   42  A    between atoms: _109  and  _110
REMARK   43  A    between atoms: _116  and  _118
REMARK   44  A    between atoms: _118  and  _119
REMARK   45  A    between atoms: _118  and  _121
REMARK   46  A    between atoms: _121  and  _122
REMARK   47  A    between atoms: _122  and  _123
REMARK   48  A    between atoms: _123  and  _124
REMARK   49  A    between atoms: _133  and  _135
REMARK   50  A    between atoms: _135  and  _136
REMARK   51  A    between atoms: _135  and  _138
REMARK   52  A    between atoms: _138  and  _139
REMARK   53  A    between atoms: _139  and  _140
REMARK   54  A    between atoms: _145  and  _147
REMARK   55  A    between atoms: _147  and  _148
REMARK   56  A    between atoms: _147  and  _150
REMARK   57  A    between atoms: _150  and  _151
REMARK   58  A    between atoms: _151  and  _152
REMARK   59  A    between atoms: _155  and  _157
REMARK   60  A    between atoms: _157  and  _158
REMARK   61  A    between atoms: _157  and  _160
REMARK   62  A    between atoms: _163  and  _165
REMARK   63  A    between atoms: _165  and  _166
REMARK   64  A    between atoms: _165  and  _168
REMARK   65  A    between atoms: _168  and  _169
REMARK   66  A    between atoms: _172  and  _174
REMARK   67  A    between atoms: _174  and  _175
REMARK   68  A    between atoms: _174  and  _177
REMARK   69  A    between atoms: _177  and  _178
REMARK   70  A    between atoms: _184  and  _186
REMARK   71  A    between atoms: _186  and  _187
REMARK   72  A    between atoms: _186  and  _189
REMARK   73  A    between atoms: _189  and  _190
REMARK   74  A    between atoms: _195  and  _197
REMARK   75  A    between atoms: _197  and  _198
REMARK   76  A    between atoms: _197  and  _200
REMARK   77  A    between atoms: _200  and  _201
REMARK   78  A    between atoms: _203  and  _205
REMARK   79  A    between atoms: _205  and  _206
REMARK   80  A    between atoms: _205  and  _208
REMARK   81  A    between atoms: _208  and  _209
REMARK   82  A    between atoms: _209  and  _210
REMARK   83  A    between atoms: _210  and  _211
REMARK   84  A    between atoms: _221  and  _222
REMARK   85  A    between atoms: _227  and  _229
REMARK   86  A    between atoms: _229  and  _230
REMARK   87  A    between atoms: _229  and  _232
REMARK   88  A    between atoms: _232  and  _233
REMARK   89  A    between atoms: _243  and  _245
REMARK   90  A    between atoms: _245  and  _246
REMARK   91  A    between atoms: _245  and  _248
REMARK   92  A    between atoms: _248  and  _249
REMARK   93  A    between atoms: _252  and  _254
REMARK   94  A    between atoms: _254  and  _255
REMARK   95  A    between atoms: _254  and  _257
REMARK   96  A    between atoms: _260  and  _262
REMARK   97  A    between atoms: _262  and  _263
REMARK   98  A    between atoms: _262  and  _265
REMARK   99  A    between atoms: _265  and  _266
REMARK  100  A    between atoms: _266  and  _267
REMARK  101  A    between atoms: _270  and  _272
REMARK  102  A    between atoms: _272  and  _273
REMARK  103  A    between atoms: _272  and  _275
REMARK  104  A    between atoms: _275  and  _276
REMARK  105  A    between atoms: _276  and  _277
REMARK  106  A    between atoms: _282  and  _284
REMARK  107  A    between atoms: _284  and  _285
REMARK  108  A    between atoms: _284  and  _287
REMARK  109  A    between atoms: _287  and  _288
REMARK                            x       y       z     vdW  Elec       q    Type
REMARK                         _______ _______ _______ _____ _____    ______ ____
ROOT
ATOM      1  O   HOH     1       6.122 -20.823  -0.761  0.00  0.00    +0.000 OA
ENDROOT
TORSDOF 0
REMARK  Name = ../refined-set-2016/3m3o/3m3o_pocket.pdb
REMARK  109 active torsions:
REMARK  status: ('A' for Active; 'I' for Inactive)
REMARK    1  A    between atoms: _1  and  _3
REMARK    2  A    between atoms: _3  and  _4
REMARK    3  A    between atoms: _6  and  _8
REMARK    4  A    between atoms: _8  and  _9
REMARK    5  A    between atoms: _8  and  _11
REMARK    6  A    between atoms: _11  and  _12
REMARK    7  A    between atoms: _18  and  _19
REMARK    8  A    between atoms: _24  and  _26
REMARK    9  A    between atoms: _26  and  _27
REMARK   10  A    between atoms: _26  and  _29
REMARK   11  A    between atoms: _29  and  _30
REMARK   12  A    between atoms: _35  and  _37
REMARK   13  A    between atoms: _37  and  _38
REMARK   14  A    between atoms: _37  and  _40
REMARK   15  A    between atoms: _40  and  _41
REMARK   16  A    between atoms: _44  and  _46
REMARK   17  A    between atoms: _46  and  _47
REMARK   18  A    between atoms: _46  and  _49
REMARK   19  A    between atoms: _49  and  _50
REMARK   20  A    between atoms: _53  and  _55
REMARK   21  A    between atoms: _55  and  _56
REMARK   22  A    between atoms: _55  and  _58
REMARK   23  A    between atoms: _58  and  _59
REMARK   24  A    between atoms: _64  and  _66
REMARK   25  A    between atoms: _66  and  _67
REMARK   26  A    between atoms: _66  and  _69
REMARK   27  A    between atoms: _69  and  _70
REMARK   28  A    between atoms: _75  and  _76
REMARK   29  A    between atoms: _78  and  _80
REMARK   30  A    between atoms: _80  and  _81
REMARK   31  A    between atoms: _80  and  _83
REMARK   32  A    between atoms: _83  and  _84
REMARK   33  A    between atoms: _89  and  _91
REMARK   34  A    between atoms: _91  and  _92
REMARK   35  A    between atoms: _91  and  _94
REMARK   36  A    between atoms: _94  and  _95
REMARK   37  A    between atoms: _98  and  _100
REMARK   38  A    between atoms: _100  and  _101
REMARK   39  A    between atoms: _104  and  _106
REMARK   40  A    between atoms: _106  and  _107
REMARK   41  A    between atoms: _106  and  _109
REMARK   42  A    between atoms: _109  and  _110
REMARK   43  A    between atoms: _116  and  _118
REMARK   44  A    between atoms: _118  and  _119
REMARK   45  A    between atoms: _118  and  _121
REMARK   46  A    between atoms: _121  and  _122
REMARK   47  A    between atoms: _122  and  _123
REMARK   48  A    between atoms: _123  and  _124
REMARK   49  A    between atoms: _133  and  _135
REMARK   50  A    between atoms: _135  and  _136
REMARK   51  A    between atoms: _135  and  _138
REMARK   52  A    between atoms: _138  and  _139
REMARK   53  A    between atoms: _139  and  _140
REMARK   54  A    between atoms: _145  and  _147
REMARK   55  A    between atoms: _147  and  _148
REMARK   56  A    between atoms: _147  and  _150
REMARK   57  A    between atoms: _150  and  _151
REMARK   58  A    between atoms: _151  and  _152
REMARK   59  A    between atoms: _155  and  _157
REMARK   60  A    between atoms: _157  and  _158
REMARK   61  A    between atoms: _157  and  _160
REMARK   62  A    between atoms: _163  and  _165
REMARK   63  A    between atoms: _165  and  _166
REMARK   64  A    between atoms: _165  and  _168
REMARK   65  A    between atoms: _168  and  _169
REMARK   66  A    between atoms: _172  and  _174
REMARK   67  A    between atoms: _174  and  _175
REMARK   68  A    between atoms: _174  and  _177
REMARK   69  A    between atoms: _177  and  _178
REMARK   70  A    between atoms: _184  and  _186
REMARK   71  A    between atoms: _186  and  _187
REMARK   72  A    between atoms: _186  and  _189
REMARK   73  A    between atoms: _189  and  _190
REMARK   74  A    between atoms: _195  and  _197
REMARK   75  A    between atoms: _197  and  _198
REMARK   76  A    between atoms: _197  and  _200
REMARK   77  A    between atoms: _200  and  _201
REMARK   78  A    between atoms: _203  and  _205
REMARK   79  A    between atoms: _205  and  _206
REMARK   80  A    between atoms: _205  and  _208
REMARK   81  A    between atoms: _208  and  _209
REMARK   82  A    between atoms: _209  and  _210
REMARK   83  A    between atoms: _210  and  _211
REMARK   84  A    between atoms: _221  and  _222
REMARK   85  A    between atoms: _227  and  _229
REMARK   86  A    between atoms: _229  and  _230
REMARK   87  A    between atoms: _229  and  _232
REMARK   88  A    between atoms: _232  and  _233
REMARK   89  A    between atoms: _243  and  _245
REMARK   90  A    between atoms: _245  and  _246
REMARK   91  A    between atoms: _245  and  _248
REMARK   92  A    between atoms: _248  and  _249
REMARK   93  A    between atoms: _252  and  _254
REMARK   94  A    between atoms: _254  and  _255
REMARK   95  A    between atoms: _254  and  _257
REMARK   96  A    between atoms: _260  and  _262
REMARK   97  A    between atoms: _262  and  _263
REMARK   98  A    between atoms: _262  and  _265
REMARK   99  A    between atoms: _265  and  _266
REMARK  100  A    between atoms: _266  and  _267
REMARK  101  A    between atoms: _270  and  _272
REMARK  102  A    between atoms: _272  and  _273
REMARK  103  A    between atoms: _272  and  _275
REMARK  104  A    between atoms: _275  and  _276
REMARK  105  A    between atoms: _276  and  _277
REMARK  106  A    between atoms: _282  and  _284
REMARK  107  A    between atoms: _284  and  _285
REMARK  108  A    between atoms: _284  and  _287
REMARK  109  A    between atoms: _287  and  _288
REMARK                            x       y       z     vdW  Elec       q    Type
REMARK                         _______ _______ _______ _____ _____    ______ ____
ROOT
ATOM      1  O   HOH     1       2.076  -9.750  -3.863  0.00  0.00    +0.000 OA
ENDROOT
TORSDOF 0
REMARK  Name = ../refined-set-2016/3m3o/3m3o_pocket.pdb
REMARK  109 active torsions:
REMARK  status: ('A' for Active; 'I' for Inactive)
REMARK    1  A    between atoms: _1  and  _3
REMARK    2  A    between atoms: _3  and  _4
REMARK    3  A    between atoms: _6  and  _8
REMARK    4  A    between atoms: _8  and  _9
REMARK    5  A    between atoms: _8  and  _11
REMARK    6  A    between atoms: _11  and  _12
REMARK    7  A    between atoms: _18  and  _19
REMARK    8  A    between atoms: _24  and  _26
REMARK    9  A    between atoms: _26  and  _27
REMARK   10  A    between atoms: _26  and  _29
REMARK   11  A    between atoms: _29  and  _30
REMARK   12  A    between atoms: _35  and  _37
REMARK   13  A    between atoms: _37  and  _38
REMARK   14  A    between atoms: _37  and  _40
REMARK   15  A    between atoms: _40  and  _41
REMARK   16  A    between atoms: _44  and  _46
REMARK   17  A    between atoms: _46  and  _47
REMARK   18  A    between atoms: _46  and  _49
REMARK   19  A    between atoms: _49  and  _50
REMARK   20  A    between atoms: _53  and  _55
REMARK   21  A    between atoms: _55  and  _56
REMARK   22  A    between atoms: _55  and  _58
REMARK   23  A    between atoms: _58  and  _59
REMARK   24  A    between atoms: _64  and  _66
REMARK   25  A    between atoms: _66  and  _67
REMARK   26  A    between atoms: _66  and  _69
REMARK   27  A    between atoms: _69  and  _70
REMARK   28  A    between atoms: _75  and  _76
REMARK   29  A    between atoms: _78  and  _80
REMARK   30  A    between atoms: _80  and  _81
REMARK   31  A    between atoms: _80  and  _83
REMARK   32  A    between atoms: _83  and  _84
REMARK   33  A    between atoms: _89  and  _91
REMARK   34  A    between atoms: _91  and  _92
REMARK   35  A    between atoms: _91  and  _94
REMARK   36  A    between atoms: _94  and  _95
REMARK   37  A    between atoms: _98  and  _100
REMARK   38  A    between atoms: _100  and  _101
REMARK   39  A    between atoms: _104  and  _106
REMARK   40  A    between atoms: _106  and  _107
REMARK   41  A    between atoms: _106  and  _109
REMARK   42  A    between atoms: _109  and  _110
REMARK   43  A    between atoms: _116  and  _118
REMARK   44  A    between atoms: _118  and  _119
REMARK   45  A    between atoms: _118  and  _121
REMARK   46  A    between atoms: _121  and  _122
REMARK   47  A    between atoms: _122  and  _123
REMARK   48  A    between atoms: _123  and  _124
REMARK   49  A    between atoms: _133  and  _135
REMARK   50  A    between atoms: _135  and  _136
REMARK   51  A    between atoms: _135  and  _138
REMARK   52  A    between atoms: _138  and  _139
REMARK   53  A    between atoms: _139  and  _140
REMARK   54  A    between atoms: _145  and  _147
REMARK   55  A    between atoms: _147  and  _148
REMARK   56  A    between atoms: _147  and  _150
REMARK   57  A    between atoms: _150  and  _151
REMARK   58  A    between atoms: _151  and  _152
REMARK   59  A    between atoms: _155  and  _157
REMARK   60  A    between atoms: _157  and  _158
REMARK   61  A    between atoms: _157  and  _160
REMARK   62  A    between atoms: _163  and  _165
REMARK   63  A    between atoms: _165  and  _166
REMARK   64  A    between atoms: _165  and  _168
REMARK   65  A    between atoms: _168  and  _169
REMARK   66  A    between atoms: _172  and  _174
REMARK   67  A    between atoms: _174  and  _175
REMARK   68  A    between atoms: _174  and  _177
REMARK   69  A    between atoms: _177  and  _178
REMARK   70  A    between atoms: _184  and  _186
REMARK   71  A    between atoms: _186  and  _187
REMARK   72  A    between atoms: _186  and  _189
REMARK   73  A    between atoms: _189  and  _190
REMARK   74  A    between atoms: _195  and  _197
REMARK   75  A    between atoms: _197  and  _198
REMARK   76  A    between atoms: _197  and  _200
REMARK   77  A    between atoms: _200  and  _201
REMARK   78  A    between atoms: _203  and  _205
REMARK   79  A    between atoms: _205  and  _206
REMARK   80  A    between atoms: _205  and  _208
REMARK   81  A    between atoms: _208  and  _209
REMARK   82  A    between atoms: _209  and  _210
REMARK   83  A    between atoms: _210  and  _211
REMARK   84  A    between atoms: _221  and  _222
REMARK   85  A    between atoms: _227  and  _229
REMARK   86  A    between atoms: _229  and  _230
REMARK   87  A    between atoms: _229  and  _232
REMARK   88  A    between atoms: _232  and  _233
REMARK   89  A    between atoms: _243  and  _245
REMARK   90  A    between atoms: _245  and  _246
REMARK   91  A    between atoms: _245  and  _248
REMARK   92  A    between atoms: _248  and  _249
REMARK   93  A    between atoms: _252  and  _254
REMARK   94  A    between atoms: _254  and  _255
REMARK   95  A    between atoms: _254  and  _257
REMARK   96  A    between atoms: _260  and  _262
REMARK   97  A    between atoms: _262  and  _263
REMARK   98  A    between atoms: _262  and  _265
REMARK   99  A    between atoms: _265  and  _266
REMARK  100  A    between atoms: _266  and  _267
REMARK  101  A    between atoms: _270  and  _272
REMARK  102  A    between atoms: _272  and  _273
REMARK  103  A    between atoms: _272  and  _275
REMARK  104  A    between atoms: _275  and  _276
REMARK  105  A    between atoms: _276  and  _277
REMARK  106  A    between atoms: _282  and  _284
REMARK  107  A    between atoms: _284  and  _285
REMARK  108  A    between atoms: _284  and  _287
REMARK  109  A    between atoms: _287  and  _288
REMARK                            x       y       z     vdW  Elec       q    Type
REMARK                         _______ _______ _______ _____ _____    ______ ____
ROOT
ATOM      1  O   HOH     1      -1.717 -16.405  -1.215  0.00  0.00    +0.000 OA
ENDROOT
TORSDOF 0
REMARK  Name = ../refined-set-2016/3m3o/3m3o_pocket.pdb
REMARK  109 active torsions:
REMARK  status: ('A' for Active; 'I' for Inactive)
REMARK    1  A    between atoms: _1  and  _3
REMARK    2  A    between atoms: _3  and  _4
REMARK    3  A    between atoms: _6  and  _8
REMARK    4  A    between atoms: _8  and  _9
REMARK    5  A    between atoms: _8  and  _11
REMARK    6  A    between atoms: _11  and  _12
REMARK    7  A    between atoms: _18  and  _19
REMARK    8  A    between atoms: _24  and  _26
REMARK    9  A    between atoms: _26  and  _27
REMARK   10  A    between atoms: _26  and  _29
REMARK   11  A    between atoms: _29  and  _30
REMARK   12  A    between atoms: _35  and  _37
REMARK   13  A    between atoms: _37  and  _38
REMARK   14  A    between atoms: _37  and  _40
REMARK   15  A    between atoms: _40  and  _41
REMARK   16  A    between atoms: _44  and  _46
REMARK   17  A    between atoms: _46  and  _47
REMARK   18  A    between atoms: _46  and  _49
REMARK   19  A    between atoms: _49  and  _50
REMARK   20  A    between atoms: _53  and  _55
REMARK   21  A    between atoms: _55  and  _56
REMARK   22  A    between atoms: _55  and  _58
REMARK   23  A    between atoms: _58  and  _59
REMARK   24  A    between atoms: _64  and  _66
REMARK   25  A    between atoms: _66  and  _67
REMARK   26  A    between atoms: _66  and  _69
REMARK   27  A    between atoms: _69  and  _70
REMARK   28  A    between atoms: _75  and  _76
REMARK   29  A    between atoms: _78  and  _80
REMARK   30  A    between atoms: _80  and  _81
REMARK   31  A    between atoms: _80  and  _83
REMARK   32  A    between atoms: _83  and  _84
REMARK   33  A    between atoms: _89  and  _91
REMARK   34  A    between atoms: _91  and  _92
REMARK   35  A    between atoms: _91  and  _94
REMARK   36  A    between atoms: _94  and  _95
REMARK   37  A    between atoms: _98  and  _100
REMARK   38  A    between atoms: _100  and  _101
REMARK   39  A    between atoms: _104  and  _106
REMARK   40  A    between atoms: _106  and  _107
REMARK   41  A    between atoms: _106  and  _109
REMARK   42  A    between atoms: _109  and  _110
REMARK   43  A    between atoms: _116  and  _118
REMARK   44  A    between atoms: _118  and  _119
REMARK   45  A    between atoms: _118  and  _121
REMARK   46  A    between atoms: _121  and  _122
REMARK   47  A    between atoms: _122  and  _123
REMARK   48  A    between atoms: _123  and  _124
REMARK   49  A    between atoms: _133  and  _135
REMARK   50  A    between atoms: _135  and  _136
REMARK   51  A    between atoms: _135  and  _138
REMARK   52  A    between atoms: _138  and  _139
REMARK   53  A    between atoms: _139  and  _140
REMARK   54  A    between atoms: _145  and  _147
REMARK   55  A    between atoms: _147  and  _148
REMARK   56  A    between atoms: _147  and  _150
REMARK   57  A    between atoms: _150  and  _151
REMARK   58  A    between atoms: _151  and  _152
REMARK   59  A    between atoms: _155  and  _157
REMARK   60  A    between atoms: _157  and  _158
REMARK   61  A    between atoms: _157  and  _160
REMARK   62  A    between atoms: _163  and  _165
REMARK   63  A    between atoms: _165  and  _166
REMARK   64  A    between atoms: _165  and  _168
REMARK   65  A    between atoms: _168  and  _169
REMARK   66  A    between atoms: _172  and  _174
REMARK   67  A    between atoms: _174  and  _175
REMARK   68  A    between atoms: _174  and  _177
REMARK   69  A    between atoms: _177  and  _178
REMARK   70  A    between atoms: _184  and  _186
REMARK   71  A    between atoms: _186  and  _187
REMARK   72  A    between atoms: _186  and  _189
REMARK   73  A    between atoms: _189  and  _190
REMARK   74  A    between atoms: _195  and  _197
REMARK   75  A    between atoms: _197  and  _198
REMARK   76  A    between atoms: _197  and  _200
REMARK   77  A    between atoms: _200  and  _201
REMARK   78  A    between atoms: _203  and  _205
REMARK   79  A    between atoms: _205  and  _206
REMARK   80  A    between atoms: _205  and  _208
REMARK   81  A    between atoms: _208  and  _209
REMARK   82  A    between atoms: _209  and  _210
REMARK   83  A    between atoms: _210  and  _211
REMARK   84  A    between atoms: _221  and  _222
REMARK   85  A    between atoms: _227  and  _229
REMARK   86  A    between atoms: _229  and  _230
REMARK   87  A    between atoms: _229  and  _232
REMARK   88  A    between atoms: _232  and  _233
REMARK   89  A    between atoms: _243  and  _245
REMARK   90  A    between atoms: _245  and  _246
REMARK   91  A    between atoms: _245  and  _248
REMARK   92  A    between atoms: _248  and  _249
REMARK   93  A    between atoms: _252  and  _254
REMARK   94  A    between atoms: _254  and  _255
REMARK   95  A    between atoms: _254  and  _257
REMARK   96  A    between atoms: _260  and  _262
REMARK   97  A    between atoms: _262  and  _263
REMARK   98  A    between atoms: _262  and  _265
REMARK   99  A    between atoms: _265  and  _266
REMARK  100  A    between atoms: _266  and  _267
REMARK  101  A    between atoms: _270  and  _272
REMARK  102  A    between atoms: _272  and  _273
REMARK  103  A    between atoms: _272  and  _275
REMARK  104  A    between atoms: _275  and  _276
REMARK  105  A    between atoms: _276  and  _277
REMARK  106  A    between atoms: _282  and  _284
REMARK  107  A    between atoms: _284  and  _285
REMARK  108  A    between atoms: _284  and  _287
REMARK  109  A    between atoms: _287  and  _288
REMARK                            x       y       z     vdW  Elec       q    Type
REMARK                         _______ _______ _______ _____ _____    ______ ____
ROOT
ATOM      1  O   HOH     1      -4.356 -16.543   1.060  0.00  0.00    +0.000 OA
ENDROOT
TORSDOF 0
REMARK  Name = ../refined-set-2016/3m3o/3m3o_pocket.pdb
REMARK  109 active torsions:
REMARK  status: ('A' for Active; 'I' for Inactive)
REMARK    1  A    between atoms: _1  and  _3
REMARK    2  A    between atoms: _3  and  _4
REMARK    3  A    between atoms: _6  and  _8
REMARK    4  A    between atoms: _8  and  _9
REMARK    5  A    between atoms: _8  and  _11
REMARK    6  A    between atoms: _11  and  _12
REMARK    7  A    between atoms: _18  and  _19
REMARK    8  A    between atoms: _24  and  _26
REMARK    9  A    between atoms: _26  and  _27
REMARK   10  A    between atoms: _26  and  _29
REMARK   11  A    between atoms: _29  and  _30
REMARK   12  A    between atoms: _35  and  _37
REMARK   13  A    between atoms: _37  and  _38
REMARK   14  A    between atoms: _37  and  _40
REMARK   15  A    between atoms: _40  and  _41
REMARK   16  A    between atoms: _44  and  _46
REMARK   17  A    between atoms: _46  and  _47
REMARK   18  A    between atoms: _46  and  _49
REMARK   19  A    between atoms: _49  and  _50
REMARK   20  A    between atoms: _53  and  _55
REMARK   21  A    between atoms: _55  and  _56
REMARK   22  A    between atoms: _55  and  _58
REMARK   23  A    between atoms: _58  and  _59
REMARK   24  A    between atoms: _64  and  _66
REMARK   25  A    between atoms: _66  and  _67
REMARK   26  A    between atoms: _66  and  _69
REMARK   27  A    between atoms: _69  and  _70
REMARK   28  A    between atoms: _75  and  _76
REMARK   29  A    between atoms: _78  and  _80
REMARK   30  A    between atoms: _80  and  _81
REMARK   31  A    between atoms: _80  and  _83
REMARK   32  A    between atoms: _83  and  _84
REMARK   33  A    between atoms: _89  and  _91
REMARK   34  A    between atoms: _91  and  _92
REMARK   35  A    between atoms: _91  and  _94
REMARK   36  A    between atoms: _94  and  _95
REMARK   37  A    between atoms: _98  and  _100
REMARK   38  A    between atoms: _100  and  _101
REMARK   39  A    between atoms: _104  and  _106
REMARK   40  A    between atoms: _106  and  _107
REMARK   41  A    between atoms: _106  and  _109
REMARK   42  A    between atoms: _109  and  _110
REMARK   43  A    between atoms: _116  and  _118
REMARK   44  A    between atoms: _118  and  _119
REMARK   45  A    between atoms: _118  and  _121
REMARK   46  A    between atoms: _121  and  _122
REMARK   47  A    between atoms: _122  and  _123
REMARK   48  A    between atoms: _123  and  _124
REMARK   49  A    between atoms: _133  and  _135
REMARK   50  A    between atoms: _135  and  _136
REMARK   51  A    between atoms: _135  and  _138
REMARK   52  A    between atoms: _138  and  _139
REMARK   53  A    between atoms: _139  and  _140
REMARK   54  A    between atoms: _145  and  _147
REMARK   55  A    between atoms: _147  and  _148
REMARK   56  A    between atoms: _147  and  _150
REMARK   57  A    between atoms: _150  and  _151
REMARK   58  A    between atoms: _151  and  _152
REMARK   59  A    between atoms: _155  and  _157
REMARK   60  A    between atoms: _157  and  _158
REMARK   61  A    between atoms: _157  and  _160
REMARK   62  A    between atoms: _163  and  _165
REMARK   63  A    between atoms: _165  and  _166
REMARK   64  A    between atoms: _165  and  _168
REMARK   65  A    between atoms: _168  and  _169
REMARK   66  A    between atoms: _172  and  _174
REMARK   67  A    between atoms: _174  and  _175
REMARK   68  A    between atoms: _174  and  _177
REMARK   69  A    between atoms: _177  and  _178
REMARK   70  A    between atoms: _184  and  _186
REMARK   71  A    between atoms: _186  and  _187
REMARK   72  A    between atoms: _186  and  _189
REMARK   73  A    between atoms: _189  and  _190
REMARK   74  A    between atoms: _195  and  _197
REMARK   75  A    between atoms: _197  and  _198
REMARK   76  A    between atoms: _197  and  _200
REMARK   77  A    between atoms: _200  and  _201
REMARK   78  A    between atoms: _203  and  _205
REMARK   79  A    between atoms: _205  and  _206
REMARK   80  A    between atoms: _205  and  _208
REMARK   81  A    between atoms: _208  and  _209
REMARK   82  A    between atoms: _209  and  _210
REMARK   83  A    between atoms: _210  and  _211
REMARK   84  A    between atoms: _221  and  _222
REMARK   85  A    between atoms: _227  and  _229
REMARK   86  A    between atoms: _229  and  _230
REMARK   87  A    between atoms: _229  and  _232
REMARK   88  A    between atoms: _232  and  _233
REMARK   89  A    between atoms: _243  and  _245
REMARK   90  A    between atoms: _245  and  _246
REMARK   91  A    between atoms: _245  and  _248
REMARK   92  A    between atoms: _248  and  _249
REMARK   93  A    between atoms: _252  and  _254
REMARK   94  A    between atoms: _254  and  _255
REMARK   95  A    between atoms: _254  and  _257
REMARK   96  A    between atoms: _260  and  _262
REMARK   97  A    between atoms: _262  and  _263
REMARK   98  A    between atoms: _262  and  _265
REMARK   99  A    between atoms: _265  and  _266
REMARK  100  A    between atoms: _266  and  _267
REMARK  101  A    between atoms: _270  and  _272
REMARK  102  A    between atoms: _272  and  _273
REMARK  103  A    between atoms: _272  and  _275
REMARK  104  A    between atoms: _275  and  _276
REMARK  105  A    between atoms: _276  and  _277
REMARK  106  A    between atoms: _282  and  _284
REMARK  107  A    between atoms: _284  and  _285
REMARK  108  A    between atoms: _284  and  _287
REMARK  109  A    between atoms: _287  and  _288
REMARK                            x       y       z     vdW  Elec       q    Type
REMARK                         _______ _______ _______ _____ _____    ______ ____
ROOT
ATOM      1  O   HOH     1      -0.080 -25.257   1.803  0.00  0.00    +0.000 OA
ENDROOT
TORSDOF 0
REMARK  Name = ../refined-set-2016/3m3o/3m3o_pocket.pdb
REMARK  109 active torsions:
REMARK  status: ('A' for Active; 'I' for Inactive)
REMARK    1  A    between atoms: _1  and  _3
REMARK    2  A    between atoms: _3  and  _4
REMARK    3  A    between atoms: _6  and  _8
REMARK    4  A    between atoms: _8  and  _9
REMARK    5  A    between atoms: _8  and  _11
REMARK    6  A    between atoms: _11  and  _12
REMARK    7  A    between atoms: _18  and  _19
REMARK    8  A    between atoms: _24  and  _26
REMARK    9  A    between atoms: _26  and  _27
REMARK   10  A    between atoms: _26  and  _29
REMARK   11  A    between atoms: _29  and  _30
REMARK   12  A    between atoms: _35  and  _37
REMARK   13  A    between atoms: _37  and  _38
REMARK   14  A    between atoms: _37  and  _40
REMARK   15  A    between atoms: _40  and  _41
REMARK   16  A    between atoms: _44  and  _46
REMARK   17  A    between atoms: _46  and  _47
REMARK   18  A    between atoms: _46  and  _49
REMARK   19  A    between atoms: _49  and  _50
REMARK   20  A    between atoms: _53  and  _55
REMARK   21  A    between atoms: _55  and  _56
REMARK   22  A    between atoms: _55  and  _58
REMARK   23  A    between atoms: _58  and  _59
REMARK   24  A    between atoms: _64  and  _66
REMARK   25  A    between atoms: _66  and  _67
REMARK   26  A    between atoms: _66  and  _69
REMARK   27  A    between atoms: _69  and  _70
REMARK   28  A    between atoms: _75  and  _76
REMARK   29  A    between atoms: _78  and  _80
REMARK   30  A    between atoms: _80  and  _81
REMARK   31  A    between atoms: _80  and  _83
REMARK   32  A    between atoms: _83  and  _84
REMARK   33  A    between atoms: _89  and  _91
REMARK   34  A    between atoms: _91  and  _92
REMARK   35  A    between atoms: _91  and  _94
REMARK   36  A    between atoms: _94  and  _95
REMARK   37  A    between atoms: _98  and  _100
REMARK   38  A    between atoms: _100  and  _101
REMARK   39  A    between atoms: _104  and  _106
REMARK   40  A    between atoms: _106  and  _107
REMARK   41  A    between atoms: _106  and  _109
REMARK   42  A    between atoms: _109  and  _110
REMARK   43  A    between atoms: _116  and  _118
REMARK   44  A    between atoms: _118  and  _119
REMARK   45  A    between atoms: _118  and  _121
REMARK   46  A    between atoms: _121  and  _122
REMARK   47  A    between atoms: _122  and  _123
REMARK   48  A    between atoms: _123  and  _124
REMARK   49  A    between atoms: _133  and  _135
REMARK   50  A    between atoms: _135  and  _136
REMARK   51  A    between atoms: _135  and  _138
REMARK   52  A    between atoms: _138  and  _139
REMARK   53  A    between atoms: _139  and  _140
REMARK   54  A    between atoms: _145  and  _147
REMARK   55  A    between atoms: _147  and  _148
REMARK   56  A    between atoms: _147  and  _150
REMARK   57  A    between atoms: _150  and  _151
REMARK   58  A    between atoms: _151  and  _152
REMARK   59  A    between atoms: _155  and  _157
REMARK   60  A    between atoms: _157  and  _158
REMARK   61  A    between atoms: _157  and  _160
REMARK   62  A    between atoms: _163  and  _165
REMARK   63  A    between atoms: _165  and  _166
REMARK   64  A    between atoms: _165  and  _168
REMARK   65  A    between atoms: _168  and  _169
REMARK   66  A    between atoms: _172  and  _174
REMARK   67  A    between atoms: _174  and  _175
REMARK   68  A    between atoms: _174  and  _177
REMARK   69  A    between atoms: _177  and  _178
REMARK   70  A    between atoms: _184  and  _186
REMARK   71  A    between atoms: _186  and  _187
REMARK   72  A    between atoms: _186  and  _189
REMARK   73  A    between atoms: _189  and  _190
REMARK   74  A    between atoms: _195  and  _197
REMARK   75  A    between atoms: _197  and  _198
REMARK   76  A    between atoms: _197  and  _200
REMARK   77  A    between atoms: _200  and  _201
REMARK   78  A    between atoms: _203  and  _205
REMARK   79  A    between atoms: _205  and  _206
REMARK   80  A    between atoms: _205  and  _208
REMARK   81  A    between atoms: _208  and  _209
REMARK   82  A    between atoms: _209  and  _210
REMARK   83  A    between atoms: _210  and  _211
REMARK   84  A    between atoms: _221  and  _222
REMARK   85  A    between atoms: _227  and  _229
REMARK   86  A    between atoms: _229  and  _230
REMARK   87  A    between atoms: _229  and  _232
REMARK   88  A    between atoms: _232  and  _233
REMARK   89  A    between atoms: _243  and  _245
REMARK   90  A    between atoms: _245  and  _246
REMARK   91  A    between atoms: _245  and  _248
REMARK   92  A    between atoms: _248  and  _249
REMARK   93  A    between atoms: _252  and  _254
REMARK   94  A    between atoms: _254  and  _255
REMARK   95  A    between atoms: _254  and  _257
REMARK   96  A    between atoms: _260  and  _262
REMARK   97  A    between atoms: _262  and  _263
REMARK   98  A    between atoms: _262  and  _265
REMARK   99  A    between atoms: _265  and  _266
REMARK  100  A    between atoms: _266  and  _267
REMARK  101  A    between atoms: _270  and  _272
REMARK  102  A    between atoms: _272  and  _273
REMARK  103  A    between atoms: _272  and  _275
REMARK  104  A    between atoms: _275  and  _276
REMARK  105  A    between atoms: _276  and  _277
REMARK  106  A    between atoms: _282  and  _284
REMARK  107  A    between atoms: _284  and  _285
REMARK  108  A    between atoms: _284  and  _287
REMARK  109  A    between atoms: _287  and  _288
REMARK                            x       y       z     vdW  Elec       q    Type
REMARK                         _______ _______ _______ _____ _____    ______ ____
ROOT
ATOM      1  O   HOH     1       1.010  -9.383  -0.477  0.00  0.00    +0.000 OA
ENDROOT
TORSDOF 0
