REMARK  Name = ../refined-set-2016/2jkh/2jkh_pocket.pdb
REMARK  225 active torsions:
REMARK  status: ('A' for Active; 'I' for Inactive)
REMARK    1  A    between atoms: _1  and  _5
REMARK    2  A    between atoms: _5  and  _6
REMARK    3  A    between atoms: _5  and  _8
REMARK    4  A    between atoms: _8  and  _9
REMARK    5  A    between atoms: _12  and  _14
REMARK    6  A    between atoms: _14  and  _15
REMARK    7  A    between atoms: _14  and  _17
REMARK    8  A    between atoms: _20  and  _22
REMARK    9  A    between atoms: _22  and  _23
REMARK   10  A    between atoms: _22  and  _25
REMARK   11  A    between atoms: _25  and  _26
REMARK   12  A    between atoms: _32  and  _34
REMARK   13  A    between atoms: _34  and  _35
REMARK   14  A    between atoms: _34  and  _37
REMARK   15  A    between atoms: _37  and  _38
REMARK   16  A    between atoms: _43  and  _45
REMARK   17  A    between atoms: _45  and  _46
REMARK   18  A    between atoms: _45  and  _48
REMARK   19  A    between atoms: _48  and  _49
REMARK   20  A    between atoms: _49  and  _50
REMARK   21  A    between atoms: _55  and  _57
REMARK   22  A    between atoms: _57  and  _58
REMARK   23  A    between atoms: _57  and  _60
REMARK   24  A    between atoms: _60  and  _61
REMARK   25  A    between atoms: _67  and  _69
REMARK   26  A    between atoms: _69  and  _70
REMARK   27  A    between atoms: _69  and  _72
REMARK   28  A    between atoms: _72  and  _73
REMARK   29  A    between atoms: _76  and  _78
REMARK   30  A    between atoms: _78  and  _79
REMARK   31  A    between atoms: _78  and  _81
REMARK   32  A    between atoms: _81  and  _82
REMARK   33  A    between atoms: _82  and  _83
REMARK   34  A    between atoms: _83  and  _84
REMARK   35  A    between atoms: _84  and  _85
REMARK   36  A    between atoms: _89  and  _91
REMARK   37  A    between atoms: _91  and  _92
REMARK   38  A    between atoms: _91  and  _94
REMARK   39  A    between atoms: _94  and  _95
REMARK   40  A    between atoms: _95  and  _96
REMARK   41  A    between atoms: _99  and  _101
REMARK   42  A    between atoms: _101  and  _102
REMARK   43  A    between atoms: _101  and  _104
REMARK   44  A    between atoms: _104  and  _105
REMARK   45  A    between atoms: _108  and  _110
REMARK   46  A    between atoms: _110  and  _111
REMARK   47  A    between atoms: _110  and  _113
REMARK   48  A    between atoms: _113  and  _114
REMARK   49  A    between atoms: _119  and  _120
REMARK   50  A    between atoms: _122  and  _124
REMARK   51  A    between atoms: _124  and  _125
REMARK   52  A    between atoms: _124  and  _127
REMARK   53  A    between atoms: _127  and  _128
REMARK   54  A    between atoms: _131  and  _133
REMARK   55  A    between atoms: _133  and  _134
REMARK   56  A    between atoms: _133  and  _136
REMARK   57  A    between atoms: _136  and  _137
REMARK   58  A    between atoms: _140  and  _142
REMARK   59  A    between atoms: _142  and  _143
REMARK   60  A    between atoms: _142  and  _145
REMARK   61  A    between atoms: _148  and  _150
REMARK   62  A    between atoms: _150  and  _151
REMARK   63  A    between atoms: _150  and  _153
REMARK   64  A    between atoms: _153  and  _154
REMARK   65  A    between atoms: _154  and  _155
REMARK   66  A    between atoms: _155  and  _156
REMARK   67  A    between atoms: _165  and  _167
REMARK   68  A    between atoms: _167  and  _168
REMARK   69  A    between atoms: _167  and  _170
REMARK   70  A    between atoms: _170  and  _171
REMARK   71  A    between atoms: _176  and  _178
REMARK   72  A    between atoms: _178  and  _179
REMARK   73  A    between atoms: _178  and  _181
REMARK   74  A    between atoms: _181  and  _182
REMARK   75  A    between atoms: _182  and  _183
REMARK   76  A    between atoms: _186  and  _188
REMARK   77  A    between atoms: _188  and  _189
REMARK   78  A    between atoms: _188  and  _191
REMARK   79  A    between atoms: _191  and  _192
REMARK   80  A    between atoms: _192  and  _193
REMARK   81  A    between atoms: _193  and  _194
REMARK   82  A    between atoms: _194  and  _195
REMARK   83  A    between atoms: _199  and  _201
REMARK   84  A    between atoms: _201  and  _202
REMARK   85  A    between atoms: _204  and  _206
REMARK   86  A    between atoms: _206  and  _207
REMARK   87  A    between atoms: _206  and  _209
REMARK   88  A    between atoms: _212  and  _214
REMARK   89  A    between atoms: _214  and  _215
REMARK   90  A    between atoms: _214  and  _217
REMARK   91  A    between atoms: _217  and  _218
REMARK   92  A    between atoms: _220  and  _222
REMARK   93  A    between atoms: _222  and  _223
REMARK   94  A    between atoms: _222  and  _225
REMARK   95  A    between atoms: _225  and  _226
REMARK   96  A    between atoms: _228  and  _230
REMARK   97  A    between atoms: _230  and  _231
REMARK   98  A    between atoms: _230  and  _233
REMARK   99  A    between atoms: _233  and  _234
REMARK  100  A    between atoms: _240  and  _242
REMARK  101  A    between atoms: _242  and  _243
REMARK  102  A    between atoms: _242  and  _245
REMARK  103  A    between atoms: _245  and  _246
REMARK  104  A    between atoms: _249  and  _251
REMARK  105  A    between atoms: _251  and  _252
REMARK  106  A    between atoms: _251  and  _254
REMARK  107  A    between atoms: _254  and  _255
REMARK  108  A    between atoms: _258  and  _260
REMARK  109  A    between atoms: _260  and  _261
REMARK  110  A    between atoms: _260  and  _263
REMARK  111  A    between atoms: _263  and  _264
REMARK  112  A    between atoms: _264  and  _265
REMARK  113  A    between atoms: _267  and  _269
REMARK  114  A    between atoms: _269  and  _270
REMARK  115  A    between atoms: _269  and  _272
REMARK  116  A    between atoms: _272  and  _273
REMARK  117  A    between atoms: _279  and  _281
REMARK  118  A    between atoms: _281  and  _282
REMARK  119  A    between atoms: _281  and  _284
REMARK  120  A    between atoms: _286  and  _288
REMARK  121  A    between atoms: _288  and  _289
REMARK  122  A    between atoms: _292  and  _294
REMARK  123  A    between atoms: _294  and  _295
REMARK  124  A    between atoms: _297  and  _299
REMARK  125  A    between atoms: _299  and  _300
REMARK  126  A    between atoms: _299  and  _302
REMARK  127  A    between atoms: _302  and  _303
REMARK  128  A    between atoms: _303  and  _304
REMARK  129  A    between atoms: _307  and  _309
REMARK  130  A    between atoms: _309  and  _310
REMARK  131  A    between atoms: _309  and  _312
REMARK  132  A    between atoms: _312  and  _313
REMARK  133  A    between atoms: _316  and  _318
REMARK  134  A    between atoms: _318  and  _319
REMARK  135  A    between atoms: _322  and  _324
REMARK  136  A    between atoms: _324  and  _325
REMARK  137  A    between atoms: _324  and  _327
REMARK  138  A    between atoms: _327  and  _328
REMARK  139  A    between atoms: _328  and  _451
REMARK  140  A    between atoms: _329  and  _331
REMARK  141  A    between atoms: _331  and  _332
REMARK  142  A    between atoms: _331  and  _334
REMARK  143  A    between atoms: _334  and  _335
REMARK  144  A    between atoms: _335  and  _336
REMARK  145  A    between atoms: _341  and  _343
REMARK  146  A    between atoms: _343  and  _344
REMARK  147  A    between atoms: _346  and  _348
REMARK  148  A    between atoms: _348  and  _349
REMARK  149  A    between atoms: _348  and  _351
REMARK  150  A    between atoms: _351  and  _352
REMARK  151  A    between atoms: _355  and  _357
REMARK  152  A    between atoms: _357  and  _358
REMARK  153  A    between atoms: _357  and  _360
REMARK  154  A    between atoms: _360  and  _361
REMARK  155  A    between atoms: _363  and  _365
REMARK  156  A    between atoms: _365  and  _366
REMARK  157  A    between atoms: _368  and  _370
REMARK  158  A    between atoms: _370  and  _371
REMARK  159  A    between atoms: _373  and  _375
REMARK  160  A    between atoms: _375  and  _376
REMARK  161  A    between atoms: _375  and  _378
REMARK  162  A    between atoms: _378  and  _379
REMARK  163  A    between atoms: _384  and  _386
REMARK  164  A    between atoms: _386  and  _387
REMARK  165  A    between atoms: _386  and  _389
REMARK  166  A    between atoms: _389  and  _390
REMARK  167  A    between atoms: _393  and  _395
REMARK  168  A    between atoms: _395  and  _396
REMARK  169  A    between atoms: _395  and  _398
REMARK  170  A    between atoms: _401  and  _403
REMARK  171  A    between atoms: _403  and  _404
REMARK  172  A    between atoms: _403  and  _406
REMARK  173  A    between atoms: _406  and  _407
REMARK  174  A    between atoms: _409  and  _411
REMARK  175  A    between atoms: _411  and  _412
REMARK  176  A    between atoms: _411  and  _414
REMARK  177  A    between atoms: _414  and  _415
REMARK  178  A    between atoms: _425  and  _427
REMARK  179  A    between atoms: _427  and  _428
REMARK  180  A    between atoms: _430  and  _432
REMARK  181  A    between atoms: _432  and  _433
REMARK  182  A    between atoms: _432  and  _435
REMARK  183  A    between atoms: _435  and  _436
REMARK  184  A    between atoms: _436  and  _437
REMARK  185  A    between atoms: _440  and  _442
REMARK  186  A    between atoms: _442  and  _443
REMARK  187  A    between atoms: _445  and  _447
REMARK  188  A    between atoms: _447  and  _448
REMARK  189  A    between atoms: _447  and  _450
REMARK  190  A    between atoms: _450  and  _451
REMARK  191  A    between atoms: _452  and  _454
REMARK  192  A    between atoms: _454  and  _455
REMARK  193  A    between atoms: _458  and  _460
REMARK  194  A    between atoms: _460  and  _461
REMARK  195  A    between atoms: _460  and  _463
REMARK  196  A    between atoms: _463  and  _464
REMARK  197  A    between atoms: _464  and  _465
REMARK  198  A    between atoms: _465  and  _466
REMARK  199  A    between atoms: _475  and  _477
REMARK  200  A    between atoms: _477  and  _478
REMARK  201  A    between atoms: _477  and  _480
REMARK  202  A    between atoms: _480  and  _481
REMARK  203  A    between atoms: _481  and  _482
REMARK  204  A    between atoms: _482  and  _483
REMARK  205  A    between atoms: _483  and  _484
REMARK  206  A    between atoms: _488  and  _490
REMARK  207  A    between atoms: _490  and  _491
REMARK  208  A    between atoms: _490  and  _493
REMARK  209  A    between atoms: _493  and  _494
REMARK  210  A    between atoms: _499  and  _500
REMARK  211  A    between atoms: _502  and  _504
REMARK  212  A    between atoms: _504  and  _505
REMARK  213  A    between atoms: _507  and  _509
REMARK  214  A    between atoms: _509  and  _510
REMARK  215  A    between atoms: _509  and  _512
REMARK  216  A    between atoms: _512  and  _513
REMARK  217  A    between atoms: _516  and  _518
REMARK  218  A    between atoms: _518  and  _519
REMARK  219  A    between atoms: _518  and  _521
REMARK  220  A    between atoms: _521  and  _522
REMARK  221  A    between atoms: _527  and  _528
REMARK  222  A    between atoms: _530  and  _532
REMARK  223  A    between atoms: _532  and  _533
REMARK  224  A    between atoms: _532  and  _535
REMARK  225  A    between atoms: _535  and  _536
REMARK                            x       y       z     vdW  Elec       q    Type
REMARK                         _______ _______ _______ _____ _____    ______ ____
ROOT
ATOM      1  C   ILE A   1       1.517  12.483  35.090  0.00  0.00    +0.202 C 
ATOM      2  O   ILE A   1       1.854  13.498  35.709  0.00  0.00    -0.277 OA
ATOM      3  N   VAL A   2       0.343  11.890  35.240  0.00  0.00    -0.301 N 
ATOM      4  H   VAL A   2       0.131  11.064  34.645  0.00  0.00    +0.150 HD
ENDROOT
BRANCH   1   5
ATOM      5  CA  ILE A   1       2.494  11.824  34.121  0.00  0.00    +0.013 C 
BRANCH   5   6
ATOM      6  N   ILE A   1       2.920  12.793  33.076  0.00  0.00    +0.387 N 
ATOM      7  H1  ILE A   1       3.386  13.606  33.528  0.00  0.00    -0.089 HD
ATOM      8  H2  ILE A   1       2.086  13.120  32.547  0.00  0.00    -0.089 HD
ATOM      9  H3  ILE A   1       3.585  12.329  32.425  0.00  0.00    -0.089 HD
ENDBRANCH   5   6
BRANCH   5  10
ATOM     10  CB  ILE A   1       3.714  11.230  34.890  0.00  0.00    -0.011 C 
ATOM     11  CG2 ILE A   1       3.228  10.260  35.968  0.00  0.00    -0.002 C 
BRANCH  10  12
ATOM     12  CG1 ILE A   1       4.770  10.605  33.937  0.00  0.00    -0.002 C 
ATOM     13  CD1 ILE A   1       4.325   9.266  33.254  0.00  0.00    -0.000 C 
ENDBRANCH  10  12
ENDBRANCH   5  10
ENDBRANCH   1   5
BRANCH   3  14
ATOM     14  CA  VAL A   2      -0.673  12.331  36.195  0.00  0.00    +0.137 C 
BRANCH  14  15
ATOM     15  CB  VAL A   2      -2.088  12.120  35.602  0.00  0.00    +0.026 C 
ATOM     16  CG2 VAL A   2      -3.160  12.702  36.569  0.00  0.00    +0.002 C 
ATOM     17  CG1 VAL A   2      -2.203  12.762  34.195  0.00  0.00    +0.002 C 
ENDBRANCH  14  15
BRANCH  14  18
ATOM     18  C   VAL A   2      -0.521  11.469  37.444  0.00  0.00    +0.227 C 
ATOM     19  O   VAL A   2      -0.572  10.246  37.343  0.00  0.00    -0.286 OA
ENDBRANCH  14  18
ENDBRANCH   3  14
TORSDOF 7
REMARK  Name = ../refined-set-2016/2jkh/2jkh_pocket.pdb
REMARK  225 active torsions:
REMARK  status: ('A' for Active; 'I' for Inactive)
REMARK    1  A    between atoms: _1  and  _5
REMARK    2  A    between atoms: _5  and  _6
REMARK    3  A    between atoms: _5  and  _8
REMARK    4  A    between atoms: _8  and  _9
REMARK    5  A    between atoms: _12  and  _14
REMARK    6  A    between atoms: _14  and  _15
REMARK    7  A    between atoms: _14  and  _17
REMARK    8  A    between atoms: _20  and  _22
REMARK    9  A    between atoms: _22  and  _23
REMARK   10  A    between atoms: _22  and  _25
REMARK   11  A    between atoms: _25  and  _26
REMARK   12  A    between atoms: _32  and  _34
REMARK   13  A    between atoms: _34  and  _35
REMARK   14  A    between atoms: _34  and  _37
REMARK   15  A    between atoms: _37  and  _38
REMARK   16  A    between atoms: _43  and  _45
REMARK   17  A    between atoms: _45  and  _46
REMARK   18  A    between atoms: _45  and  _48
REMARK   19  A    between atoms: _48  and  _49
REMARK   20  A    between atoms: _49  and  _50
REMARK   21  A    between atoms: _55  and  _57
REMARK   22  A    between atoms: _57  and  _58
REMARK   23  A    between atoms: _57  and  _60
REMARK   24  A    between atoms: _60  and  _61
REMARK   25  A    between atoms: _67  and  _69
REMARK   26  A    between atoms: _69  and  _70
REMARK   27  A    between atoms: _69  and  _72
REMARK   28  A    between atoms: _72  and  _73
REMARK   29  A    between atoms: _76  and  _78
REMARK   30  A    between atoms: _78  and  _79
REMARK   31  A    between atoms: _78  and  _81
REMARK   32  A    between atoms: _81  and  _82
REMARK   33  A    between atoms: _82  and  _83
REMARK   34  A    between atoms: _83  and  _84
REMARK   35  A    between atoms: _84  and  _85
REMARK   36  A    between atoms: _89  and  _91
REMARK   37  A    between atoms: _91  and  _92
REMARK   38  A    between atoms: _91  and  _94
REMARK   39  A    between atoms: _94  and  _95
REMARK   40  A    between atoms: _95  and  _96
REMARK   41  A    between atoms: _99  and  _101
REMARK   42  A    between atoms: _101  and  _102
REMARK   43  A    between atoms: _101  and  _104
REMARK   44  A    between atoms: _104  and  _105
REMARK   45  A    between atoms: _108  and  _110
REMARK   46  A    between atoms: _110  and  _111
REMARK   47  A    between atoms: _110  and  _113
REMARK   48  A    between atoms: _113  and  _114
REMARK   49  A    between atoms: _119  and  _120
REMARK   50  A    between atoms: _122  and  _124
REMARK   51  A    between atoms: _124  and  _125
REMARK   52  A    between atoms: _124  and  _127
REMARK   53  A    between atoms: _127  and  _128
REMARK   54  A    between atoms: _131  and  _133
REMARK   55  A    between atoms: _133  and  _134
REMARK   56  A    between atoms: _133  and  _136
REMARK   57  A    between atoms: _136  and  _137
REMARK   58  A    between atoms: _140  and  _142
REMARK   59  A    between atoms: _142  and  _143
REMARK   60  A    between atoms: _142  and  _145
REMARK   61  A    between atoms: _148  and  _150
REMARK   62  A    between atoms: _150  and  _151
REMARK   63  A    between atoms: _150  and  _153
REMARK   64  A    between atoms: _153  and  _154
REMARK   65  A    between atoms: _154  and  _155
REMARK   66  A    between atoms: _155  and  _156
REMARK   67  A    between atoms: _165  and  _167
REMARK   68  A    between atoms: _167  and  _168
REMARK   69  A    between atoms: _167  and  _170
REMARK   70  A    between atoms: _170  and  _171
REMARK   71  A    between atoms: _176  and  _178
REMARK   72  A    between atoms: _178  and  _179
REMARK   73  A    between atoms: _178  and  _181
REMARK   74  A    between atoms: _181  and  _182
REMARK   75  A    between atoms: _182  and  _183
REMARK   76  A    between atoms: _186  and  _188
REMARK   77  A    between atoms: _188  and  _189
REMARK   78  A    between atoms: _188  and  _191
REMARK   79  A    between atoms: _191  and  _192
REMARK   80  A    between atoms: _192  and  _193
REMARK   81  A    between atoms: _193  and  _194
REMARK   82  A    between atoms: _194  and  _195
REMARK   83  A    between atoms: _199  and  _201
REMARK   84  A    between atoms: _201  and  _202
REMARK   85  A    between atoms: _204  and  _206
REMARK   86  A    between atoms: _206  and  _207
REMARK   87  A    between atoms: _206  and  _209
REMARK   88  A    between atoms: _212  and  _214
REMARK   89  A    between atoms: _214  and  _215
REMARK   90  A    between atoms: _214  and  _217
REMARK   91  A    between atoms: _217  and  _218
REMARK   92  A    between atoms: _220  and  _222
REMARK   93  A    between atoms: _222  and  _223
REMARK   94  A    between atoms: _222  and  _225
REMARK   95  A    between atoms: _225  and  _226
REMARK   96  A    between atoms: _228  and  _230
REMARK   97  A    between atoms: _230  and  _231
REMARK   98  A    between atoms: _230  and  _233
REMARK   99  A    between atoms: _233  and  _234
REMARK  100  A    between atoms: _240  and  _242
REMARK  101  A    between atoms: _242  and  _243
REMARK  102  A    between atoms: _242  and  _245
REMARK  103  A    between atoms: _245  and  _246
REMARK  104  A    between atoms: _249  and  _251
REMARK  105  A    between atoms: _251  and  _252
REMARK  106  A    between atoms: _251  and  _254
REMARK  107  A    between atoms: _254  and  _255
REMARK  108  A    between atoms: _258  and  _260
REMARK  109  A    between atoms: _260  and  _261
REMARK  110  A    between atoms: _260  and  _263
REMARK  111  A    between atoms: _263  and  _264
REMARK  112  A    between atoms: _264  and  _265
REMARK  113  A    between atoms: _267  and  _269
REMARK  114  A    between atoms: _269  and  _270
REMARK  115  A    between atoms: _269  and  _272
REMARK  116  A    between atoms: _272  and  _273
REMARK  117  A    between atoms: _279  and  _281
REMARK  118  A    between atoms: _281  and  _282
REMARK  119  A    between atoms: _281  and  _284
REMARK  120  A    between atoms: _286  and  _288
REMARK  121  A    between atoms: _288  and  _289
REMARK  122  A    between atoms: _292  and  _294
REMARK  123  A    between atoms: _294  and  _295
REMARK  124  A    between atoms: _297  and  _299
REMARK  125  A    between atoms: _299  and  _300
REMARK  126  A    between atoms: _299  and  _302
REMARK  127  A    between atoms: _302  and  _303
REMARK  128  A    between atoms: _303  and  _304
REMARK  129  A    between atoms: _307  and  _309
REMARK  130  A    between atoms: _309  and  _310
REMARK  131  A    between atoms: _309  and  _312
REMARK  132  A    between atoms: _312  and  _313
REMARK  133  A    between atoms: _316  and  _318
REMARK  134  A    between atoms: _318  and  _319
REMARK  135  A    between atoms: _322  and  _324
REMARK  136  A    between atoms: _324  and  _325
REMARK  137  A    between atoms: _324  and  _327
REMARK  138  A    between atoms: _327  and  _328
REMARK  139  A    between atoms: _328  and  _451
REMARK  140  A    between atoms: _329  and  _331
REMARK  141  A    between atoms: _331  and  _332
REMARK  142  A    between atoms: _331  and  _334
REMARK  143  A    between atoms: _334  and  _335
REMARK  144  A    between atoms: _335  and  _336
REMARK  145  A    between atoms: _341  and  _343
REMARK  146  A    between atoms: _343  and  _344
REMARK  147  A    between atoms: _346  and  _348
REMARK  148  A    between atoms: _348  and  _349
REMARK  149  A    between atoms: _348  and  _351
REMARK  150  A    between atoms: _351  and  _352
REMARK  151  A    between atoms: _355  and  _357
REMARK  152  A    between atoms: _357  and  _358
REMARK  153  A    between atoms: _357  and  _360
REMARK  154  A    between atoms: _360  and  _361
REMARK  155  A    between atoms: _363  and  _365
REMARK  156  A    between atoms: _365  and  _366
REMARK  157  A    between atoms: _368  and  _370
REMARK  158  A    between atoms: _370  and  _371
REMARK  159  A    between atoms: _373  and  _375
REMARK  160  A    between atoms: _375  and  _376
REMARK  161  A    between atoms: _375  and  _378
REMARK  162  A    between atoms: _378  and  _379
REMARK  163  A    between atoms: _384  and  _386
REMARK  164  A    between atoms: _386  and  _387
REMARK  165  A    between atoms: _386  and  _389
REMARK  166  A    between atoms: _389  and  _390
REMARK  167  A    between atoms: _393  and  _395
REMARK  168  A    between atoms: _395  and  _396
REMARK  169  A    between atoms: _395  and  _398
REMARK  170  A    between atoms: _401  and  _403
REMARK  171  A    between atoms: _403  and  _404
REMARK  172  A    between atoms: _403  and  _406
REMARK  173  A    between atoms: _406  and  _407
REMARK  174  A    between atoms: _409  and  _411
REMARK  175  A    between atoms: _411  and  _412
REMARK  176  A    between atoms: _411  and  _414
REMARK  177  A    between atoms: _414  and  _415
REMARK  178  A    between atoms: _425  and  _427
REMARK  179  A    between atoms: _427  and  _428
REMARK  180  A    between atoms: _430  and  _432
REMARK  181  A    between atoms: _432  and  _433
REMARK  182  A    between atoms: _432  and  _435
REMARK  183  A    between atoms: _435  and  _436
REMARK  184  A    between atoms: _436  and  _437
REMARK  185  A    between atoms: _440  and  _442
REMARK  186  A    between atoms: _442  and  _443
REMARK  187  A    between atoms: _445  and  _447
REMARK  188  A    between atoms: _447  and  _448
REMARK  189  A    between atoms: _447  and  _450
REMARK  190  A    between atoms: _450  and  _451
REMARK  191  A    between atoms: _452  and  _454
REMARK  192  A    between atoms: _454  and  _455
REMARK  193  A    between atoms: _458  and  _460
REMARK  194  A    between atoms: _460  and  _461
REMARK  195  A    between atoms: _460  and  _463
REMARK  196  A    between atoms: _463  and  _464
REMARK  197  A    between atoms: _464  and  _465
REMARK  198  A    between atoms: _465  and  _466
REMARK  199  A    between atoms: _475  and  _477
REMARK  200  A    between atoms: _477  and  _478
REMARK  201  A    between atoms: _477  and  _480
REMARK  202  A    between atoms: _480  and  _481
REMARK  203  A    between atoms: _481  and  _482
REMARK  204  A    between atoms: _482  and  _483
REMARK  205  A    between atoms: _483  and  _484
REMARK  206  A    between atoms: _488  and  _490
REMARK  207  A    between atoms: _490  and  _491
REMARK  208  A    between atoms: _490  and  _493
REMARK  209  A    between atoms: _493  and  _494
REMARK  210  A    between atoms: _499  and  _500
REMARK  211  A    between atoms: _502  and  _504
REMARK  212  A    between atoms: _504  and  _505
REMARK  213  A    between atoms: _507  and  _509
REMARK  214  A    between atoms: _509  and  _510
REMARK  215  A    between atoms: _509  and  _512
REMARK  216  A    between atoms: _512  and  _513
REMARK  217  A    between atoms: _516  and  _518
REMARK  218  A    between atoms: _518  and  _519
REMARK  219  A    between atoms: _518  and  _521
REMARK  220  A    between atoms: _521  and  _522
REMARK  221  A    between atoms: _527  and  _528
REMARK  222  A    between atoms: _530  and  _532
REMARK  223  A    between atoms: _532  and  _533
REMARK  224  A    between atoms: _532  and  _535
REMARK  225  A    between atoms: _535  and  _536
REMARK                            x       y       z     vdW  Elec       q    Type
REMARK                         _______ _______ _______ _____ _____    ______ ____
ROOT
ATOM      1  CB  PHE A   1       7.088  17.388  21.547  0.00  0.00    +0.051 C 
ENDROOT
BRANCH   1   2
ATOM      2  CG  PHE A   1       7.961  16.727  20.523  0.00  0.00    -0.020 A 
ATOM      3  CD2 PHE A   1       9.242  17.188  20.283  0.00  0.00    -0.004 A 
ATOM      4  CE2 PHE A   1      10.053  16.563  19.333  0.00  0.00    -0.000 A 
ATOM      5  CZ  PHE A   1       9.587  15.457  18.624  0.00  0.00    -0.000 A 
ATOM      6  CE1 PHE A   1       8.311  14.988  18.851  0.00  0.00    -0.000 A 
ATOM      7  CD1 PHE A   1       7.499  15.623  19.802  0.00  0.00    -0.004 A 
ENDBRANCH   1   2
BRANCH   1   8
ATOM      8  CA  PHE A   1       7.307  16.862  22.978  0.00  0.00    +0.137 C 
BRANCH   8   9
ATOM      9  N   PHE A   1       8.640  17.182  23.454  0.00  0.00    -0.239 NA
ATOM     10  H   PHE A   1       9.458  16.653  23.090  0.00  0.00    +0.142 HD
ENDBRANCH   8   9
BRANCH   8  11
ATOM     11  C   PHE A   1       6.974  15.367  23.054  0.00  0.00    +0.224 C 
ATOM     12  O   PHE A   1       5.838  14.990  22.869  0.00  0.00    -0.287 OA
ENDBRANCH   8  11
ENDBRANCH   1   8
TORSDOF 4
REMARK  Name = ../refined-set-2016/2jkh/2jkh_pocket.pdb
REMARK  225 active torsions:
REMARK  status: ('A' for Active; 'I' for Inactive)
REMARK    1  A    between atoms: _1  and  _5
REMARK    2  A    between atoms: _5  and  _6
REMARK    3  A    between atoms: _5  and  _8
REMARK    4  A    between atoms: _8  and  _9
REMARK    5  A    between atoms: _12  and  _14
REMARK    6  A    between atoms: _14  and  _15
REMARK    7  A    between atoms: _14  and  _17
REMARK    8  A    between atoms: _20  and  _22
REMARK    9  A    between atoms: _22  and  _23
REMARK   10  A    between atoms: _22  and  _25
REMARK   11  A    between atoms: _25  and  _26
REMARK   12  A    between atoms: _32  and  _34
REMARK   13  A    between atoms: _34  and  _35
REMARK   14  A    between atoms: _34  and  _37
REMARK   15  A    between atoms: _37  and  _38
REMARK   16  A    between atoms: _43  and  _45
REMARK   17  A    between atoms: _45  and  _46
REMARK   18  A    between atoms: _45  and  _48
REMARK   19  A    between atoms: _48  and  _49
REMARK   20  A    between atoms: _49  and  _50
REMARK   21  A    between atoms: _55  and  _57
REMARK   22  A    between atoms: _57  and  _58
REMARK   23  A    between atoms: _57  and  _60
REMARK   24  A    between atoms: _60  and  _61
REMARK   25  A    between atoms: _67  and  _69
REMARK   26  A    between atoms: _69  and  _70
REMARK   27  A    between atoms: _69  and  _72
REMARK   28  A    between atoms: _72  and  _73
REMARK   29  A    between atoms: _76  and  _78
REMARK   30  A    between atoms: _78  and  _79
REMARK   31  A    between atoms: _78  and  _81
REMARK   32  A    between atoms: _81  and  _82
REMARK   33  A    between atoms: _82  and  _83
REMARK   34  A    between atoms: _83  and  _84
REMARK   35  A    between atoms: _84  and  _85
REMARK   36  A    between atoms: _89  and  _91
REMARK   37  A    between atoms: _91  and  _92
REMARK   38  A    between atoms: _91  and  _94
REMARK   39  A    between atoms: _94  and  _95
REMARK   40  A    between atoms: _95  and  _96
REMARK   41  A    between atoms: _99  and  _101
REMARK   42  A    between atoms: _101  and  _102
REMARK   43  A    between atoms: _101  and  _104
REMARK   44  A    between atoms: _104  and  _105
REMARK   45  A    between atoms: _108  and  _110
REMARK   46  A    between atoms: _110  and  _111
REMARK   47  A    between atoms: _110  and  _113
REMARK   48  A    between atoms: _113  and  _114
REMARK   49  A    between atoms: _119  and  _120
REMARK   50  A    between atoms: _122  and  _124
REMARK   51  A    between atoms: _124  and  _125
REMARK   52  A    between atoms: _124  and  _127
REMARK   53  A    between atoms: _127  and  _128
REMARK   54  A    between atoms: _131  and  _133
REMARK   55  A    between atoms: _133  and  _134
REMARK   56  A    between atoms: _133  and  _136
REMARK   57  A    between atoms: _136  and  _137
REMARK   58  A    between atoms: _140  and  _142
REMARK   59  A    between atoms: _142  and  _143
REMARK   60  A    between atoms: _142  and  _145
REMARK   61  A    between atoms: _148  and  _150
REMARK   62  A    between atoms: _150  and  _151
REMARK   63  A    between atoms: _150  and  _153
REMARK   64  A    between atoms: _153  and  _154
REMARK   65  A    between atoms: _154  and  _155
REMARK   66  A    between atoms: _155  and  _156
REMARK   67  A    between atoms: _165  and  _167
REMARK   68  A    between atoms: _167  and  _168
REMARK   69  A    between atoms: _167  and  _170
REMARK   70  A    between atoms: _170  and  _171
REMARK   71  A    between atoms: _176  and  _178
REMARK   72  A    between atoms: _178  and  _179
REMARK   73  A    between atoms: _178  and  _181
REMARK   74  A    between atoms: _181  and  _182
REMARK   75  A    between atoms: _182  and  _183
REMARK   76  A    between atoms: _186  and  _188
REMARK   77  A    between atoms: _188  and  _189
REMARK   78  A    between atoms: _188  and  _191
REMARK   79  A    between atoms: _191  and  _192
REMARK   80  A    between atoms: _192  and  _193
REMARK   81  A    between atoms: _193  and  _194
REMARK   82  A    between atoms: _194  and  _195
REMARK   83  A    between atoms: _199  and  _201
REMARK   84  A    between atoms: _201  and  _202
REMARK   85  A    between atoms: _204  and  _206
REMARK   86  A    between atoms: _206  and  _207
REMARK   87  A    between atoms: _206  and  _209
REMARK   88  A    between atoms: _212  and  _214
REMARK   89  A    between atoms: _214  and  _215
REMARK   90  A    between atoms: _214  and  _217
REMARK   91  A    between atoms: _217  and  _218
REMARK   92  A    between atoms: _220  and  _222
REMARK   93  A    between atoms: _222  and  _223
REMARK   94  A    between atoms: _222  and  _225
REMARK   95  A    between atoms: _225  and  _226
REMARK   96  A    between atoms: _228  and  _230
REMARK   97  A    between atoms: _230  and  _231
REMARK   98  A    between atoms: _230  and  _233
REMARK   99  A    between atoms: _233  and  _234
REMARK  100  A    between atoms: _240  and  _242
REMARK  101  A    between atoms: _242  and  _243
REMARK  102  A    between atoms: _242  and  _245
REMARK  103  A    between atoms: _245  and  _246
REMARK  104  A    between atoms: _249  and  _251
REMARK  105  A    between atoms: _251  and  _252
REMARK  106  A    between atoms: _251  and  _254
REMARK  107  A    between atoms: _254  and  _255
REMARK  108  A    between atoms: _258  and  _260
REMARK  109  A    between atoms: _260  and  _261
REMARK  110  A    between atoms: _260  and  _263
REMARK  111  A    between atoms: _263  and  _264
REMARK  112  A    between atoms: _264  and  _265
REMARK  113  A    between atoms: _267  and  _269
REMARK  114  A    between atoms: _269  and  _270
REMARK  115  A    between atoms: _269  and  _272
REMARK  116  A    between atoms: _272  and  _273
REMARK  117  A    between atoms: _279  and  _281
REMARK  118  A    between atoms: _281  and  _282
REMARK  119  A    between atoms: _281  and  _284
REMARK  120  A    between atoms: _286  and  _288
REMARK  121  A    between atoms: _288  and  _289
REMARK  122  A    between atoms: _292  and  _294
REMARK  123  A    between atoms: _294  and  _295
REMARK  124  A    between atoms: _297  and  _299
REMARK  125  A    between atoms: _299  and  _300
REMARK  126  A    between atoms: _299  and  _302
REMARK  127  A    between atoms: _302  and  _303
REMARK  128  A    between atoms: _303  and  _304
REMARK  129  A    between atoms: _307  and  _309
REMARK  130  A    between atoms: _309  and  _310
REMARK  131  A    between atoms: _309  and  _312
REMARK  132  A    between atoms: _312  and  _313
REMARK  133  A    between atoms: _316  and  _318
REMARK  134  A    between atoms: _318  and  _319
REMARK  135  A    between atoms: _322  and  _324
REMARK  136  A    between atoms: _324  and  _325
REMARK  137  A    between atoms: _324  and  _327
REMARK  138  A    between atoms: _327  and  _328
REMARK  139  A    between atoms: _328  and  _451
REMARK  140  A    between atoms: _329  and  _331
REMARK  141  A    between atoms: _331  and  _332
REMARK  142  A    between atoms: _331  and  _334
REMARK  143  A    between atoms: _334  and  _335
REMARK  144  A    between atoms: _335  and  _336
REMARK  145  A    between atoms: _341  and  _343
REMARK  146  A    between atoms: _343  and  _344
REMARK  147  A    between atoms: _346  and  _348
REMARK  148  A    between atoms: _348  and  _349
REMARK  149  A    between atoms: _348  and  _351
REMARK  150  A    between atoms: _351  and  _352
REMARK  151  A    between atoms: _355  and  _357
REMARK  152  A    between atoms: _357  and  _358
REMARK  153  A    between atoms: _357  and  _360
REMARK  154  A    between atoms: _360  and  _361
REMARK  155  A    between atoms: _363  and  _365
REMARK  156  A    between atoms: _365  and  _366
REMARK  157  A    between atoms: _368  and  _370
REMARK  158  A    between atoms: _370  and  _371
REMARK  159  A    between atoms: _373  and  _375
REMARK  160  A    between atoms: _375  and  _376
REMARK  161  A    between atoms: _375  and  _378
REMARK  162  A    between atoms: _378  and  _379
REMARK  163  A    between atoms: _384  and  _386
REMARK  164  A    between atoms: _386  and  _387
REMARK  165  A    between atoms: _386  and  _389
REMARK  166  A    between atoms: _389  and  _390
REMARK  167  A    between atoms: _393  and  _395
REMARK  168  A    between atoms: _395  and  _396
REMARK  169  A    between atoms: _395  and  _398
REMARK  170  A    between atoms: _401  and  _403
REMARK  171  A    between atoms: _403  and  _404
REMARK  172  A    between atoms: _403  and  _406
REMARK  173  A    between atoms: _406  and  _407
REMARK  174  A    between atoms: _409  and  _411
REMARK  175  A    between atoms: _411  and  _412
REMARK  176  A    between atoms: _411  and  _414
REMARK  177  A    between atoms: _414  and  _415
REMARK  178  A    between atoms: _425  and  _427
REMARK  179  A    between atoms: _427  and  _428
REMARK  180  A    between atoms: _430  and  _432
REMARK  181  A    between atoms: _432  and  _433
REMARK  182  A    between atoms: _432  and  _435
REMARK  183  A    between atoms: _435  and  _436
REMARK  184  A    between atoms: _436  and  _437
REMARK  185  A    between atoms: _440  and  _442
REMARK  186  A    between atoms: _442  and  _443
REMARK  187  A    between atoms: _445  and  _447
REMARK  188  A    between atoms: _447  and  _448
REMARK  189  A    between atoms: _447  and  _450
REMARK  190  A    between atoms: _450  and  _451
REMARK  191  A    between atoms: _452  and  _454
REMARK  192  A    between atoms: _454  and  _455
REMARK  193  A    between atoms: _458  and  _460
REMARK  194  A    between atoms: _460  and  _461
REMARK  195  A    between atoms: _460  and  _463
REMARK  196  A    between atoms: _463  and  _464
REMARK  197  A    between atoms: _464  and  _465
REMARK  198  A    between atoms: _465  and  _466
REMARK  199  A    between atoms: _475  and  _477
REMARK  200  A    between atoms: _477  and  _478
REMARK  201  A    between atoms: _477  and  _480
REMARK  202  A    between atoms: _480  and  _481
REMARK  203  A    between atoms: _481  and  _482
REMARK  204  A    between atoms: _482  and  _483
REMARK  205  A    between atoms: _483  and  _484
REMARK  206  A    between atoms: _488  and  _490
REMARK  207  A    between atoms: _490  and  _491
REMARK  208  A    between atoms: _490  and  _493
REMARK  209  A    between atoms: _493  and  _494
REMARK  210  A    between atoms: _499  and  _500
REMARK  211  A    between atoms: _502  and  _504
REMARK  212  A    between atoms: _504  and  _505
REMARK  213  A    between atoms: _507  and  _509
REMARK  214  A    between atoms: _509  and  _510
REMARK  215  A    between atoms: _509  and  _512
REMARK  216  A    between atoms: _512  and  _513
REMARK  217  A    between atoms: _516  and  _518
REMARK  218  A    between atoms: _518  and  _519
REMARK  219  A    between atoms: _518  and  _521
REMARK  220  A    between atoms: _521  and  _522
REMARK  221  A    between atoms: _527  and  _528
REMARK  222  A    between atoms: _530  and  _532
REMARK  223  A    between atoms: _532  and  _533
REMARK  224  A    between atoms: _532  and  _535
REMARK  225  A    between atoms: _535  and  _536
REMARK                            x       y       z     vdW  Elec       q    Type
REMARK                         _______ _______ _______ _____ _____    ______ ____
ROOT
ATOM      1  CB  HIS A   1       2.183   8.617  16.687  0.00  0.00    +0.072 C 
ENDROOT
BRANCH   1   2
ATOM      2  CG  HIS A   1       2.284   8.869  18.157  0.00  0.00    +0.082 A 
ATOM      3  ND1 HIS A   1       2.328   7.854  19.095  0.00  0.00    -0.227 NA
ATOM      4  CE1 HIS A   1       2.406   8.387  20.302  0.00  0.00    +0.199 A 
ATOM      5  NE2 HIS A   1       2.391   9.701  20.182  0.00  0.00    -0.221 NA
ATOM      6  CD2 HIS A   1       2.318  10.028  18.850  0.00  0.00    +0.115 A 
ENDBRANCH   1   2
BRANCH   1   7
ATOM      7  CA  HIS A   1       3.511   8.792  15.921  0.00  0.00    +0.139 C 
BRANCH   7   8
ATOM      8  N   HIS A   1       4.370   7.602  16.015  0.00  0.00    -0.239 NA
ATOM      9  H   HIS A   1       4.146   6.857  16.705  0.00  0.00    +0.142 HD
ENDBRANCH   7   8
BRANCH   7  10
ATOM     10  C   HIS A   1       4.251  10.061  16.333  0.00  0.00    +0.224 C 
ATOM     11  O   HIS A   1       3.855  11.166  15.955  0.00  0.00    -0.287 OA
ENDBRANCH   7  10
ENDBRANCH   1   7
TORSDOF 4
REMARK  Name = ../refined-set-2016/2jkh/2jkh_pocket.pdb
REMARK  225 active torsions:
REMARK  status: ('A' for Active; 'I' for Inactive)
REMARK    1  A    between atoms: _1  and  _5
REMARK    2  A    between atoms: _5  and  _6
REMARK    3  A    between atoms: _5  and  _8
REMARK    4  A    between atoms: _8  and  _9
REMARK    5  A    between atoms: _12  and  _14
REMARK    6  A    between atoms: _14  and  _15
REMARK    7  A    between atoms: _14  and  _17
REMARK    8  A    between atoms: _20  and  _22
REMARK    9  A    between atoms: _22  and  _23
REMARK   10  A    between atoms: _22  and  _25
REMARK   11  A    between atoms: _25  and  _26
REMARK   12  A    between atoms: _32  and  _34
REMARK   13  A    between atoms: _34  and  _35
REMARK   14  A    between atoms: _34  and  _37
REMARK   15  A    between atoms: _37  and  _38
REMARK   16  A    between atoms: _43  and  _45
REMARK   17  A    between atoms: _45  and  _46
REMARK   18  A    between atoms: _45  and  _48
REMARK   19  A    between atoms: _48  and  _49
REMARK   20  A    between atoms: _49  and  _50
REMARK   21  A    between atoms: _55  and  _57
REMARK   22  A    between atoms: _57  and  _58
REMARK   23  A    between atoms: _57  and  _60
REMARK   24  A    between atoms: _60  and  _61
REMARK   25  A    between atoms: _67  and  _69
REMARK   26  A    between atoms: _69  and  _70
REMARK   27  A    between atoms: _69  and  _72
REMARK   28  A    between atoms: _72  and  _73
REMARK   29  A    between atoms: _76  and  _78
REMARK   30  A    between atoms: _78  and  _79
REMARK   31  A    between atoms: _78  and  _81
REMARK   32  A    between atoms: _81  and  _82
REMARK   33  A    between atoms: _82  and  _83
REMARK   34  A    between atoms: _83  and  _84
REMARK   35  A    between atoms: _84  and  _85
REMARK   36  A    between atoms: _89  and  _91
REMARK   37  A    between atoms: _91  and  _92
REMARK   38  A    between atoms: _91  and  _94
REMARK   39  A    between atoms: _94  and  _95
REMARK   40  A    between atoms: _95  and  _96
REMARK   41  A    between atoms: _99  and  _101
REMARK   42  A    between atoms: _101  and  _102
REMARK   43  A    between atoms: _101  and  _104
REMARK   44  A    between atoms: _104  and  _105
REMARK   45  A    between atoms: _108  and  _110
REMARK   46  A    between atoms: _110  and  _111
REMARK   47  A    between atoms: _110  and  _113
REMARK   48  A    between atoms: _113  and  _114
REMARK   49  A    between atoms: _119  and  _120
REMARK   50  A    between atoms: _122  and  _124
REMARK   51  A    between atoms: _124  and  _125
REMARK   52  A    between atoms: _124  and  _127
REMARK   53  A    between atoms: _127  and  _128
REMARK   54  A    between atoms: _131  and  _133
REMARK   55  A    between atoms: _133  and  _134
REMARK   56  A    between atoms: _133  and  _136
REMARK   57  A    between atoms: _136  and  _137
REMARK   58  A    between atoms: _140  and  _142
REMARK   59  A    between atoms: _142  and  _143
REMARK   60  A    between atoms: _142  and  _145
REMARK   61  A    between atoms: _148  and  _150
REMARK   62  A    between atoms: _150  and  _151
REMARK   63  A    between atoms: _150  and  _153
REMARK   64  A    between atoms: _153  and  _154
REMARK   65  A    between atoms: _154  and  _155
REMARK   66  A    between atoms: _155  and  _156
REMARK   67  A    between atoms: _165  and  _167
REMARK   68  A    between atoms: _167  and  _168
REMARK   69  A    between atoms: _167  and  _170
REMARK   70  A    between atoms: _170  and  _171
REMARK   71  A    between atoms: _176  and  _178
REMARK   72  A    between atoms: _178  and  _179
REMARK   73  A    between atoms: _178  and  _181
REMARK   74  A    between atoms: _181  and  _182
REMARK   75  A    between atoms: _182  and  _183
REMARK   76  A    between atoms: _186  and  _188
REMARK   77  A    between atoms: _188  and  _189
REMARK   78  A    between atoms: _188  and  _191
REMARK   79  A    between atoms: _191  and  _192
REMARK   80  A    between atoms: _192  and  _193
REMARK   81  A    between atoms: _193  and  _194
REMARK   82  A    between atoms: _194  and  _195
REMARK   83  A    between atoms: _199  and  _201
REMARK   84  A    between atoms: _201  and  _202
REMARK   85  A    between atoms: _204  and  _206
REMARK   86  A    between atoms: _206  and  _207
REMARK   87  A    between atoms: _206  and  _209
REMARK   88  A    between atoms: _212  and  _214
REMARK   89  A    between atoms: _214  and  _215
REMARK   90  A    between atoms: _214  and  _217
REMARK   91  A    between atoms: _217  and  _218
REMARK   92  A    between atoms: _220  and  _222
REMARK   93  A    between atoms: _222  and  _223
REMARK   94  A    between atoms: _222  and  _225
REMARK   95  A    between atoms: _225  and  _226
REMARK   96  A    between atoms: _228  and  _230
REMARK   97  A    between atoms: _230  and  _231
REMARK   98  A    between atoms: _230  and  _233
REMARK   99  A    between atoms: _233  and  _234
REMARK  100  A    between atoms: _240  and  _242
REMARK  101  A    between atoms: _242  and  _243
REMARK  102  A    between atoms: _242  and  _245
REMARK  103  A    between atoms: _245  and  _246
REMARK  104  A    between atoms: _249  and  _251
REMARK  105  A    between atoms: _251  and  _252
REMARK  106  A    between atoms: _251  and  _254
REMARK  107  A    between atoms: _254  and  _255
REMARK  108  A    between atoms: _258  and  _260
REMARK  109  A    between atoms: _260  and  _261
REMARK  110  A    between atoms: _260  and  _263
REMARK  111  A    between atoms: _263  and  _264
REMARK  112  A    between atoms: _264  and  _265
REMARK  113  A    between atoms: _267  and  _269
REMARK  114  A    between atoms: _269  and  _270
REMARK  115  A    between atoms: _269  and  _272
REMARK  116  A    between atoms: _272  and  _273
REMARK  117  A    between atoms: _279  and  _281
REMARK  118  A    between atoms: _281  and  _282
REMARK  119  A    between atoms: _281  and  _284
REMARK  120  A    between atoms: _286  and  _288
REMARK  121  A    between atoms: _288  and  _289
REMARK  122  A    between atoms: _292  and  _294
REMARK  123  A    between atoms: _294  and  _295
REMARK  124  A    between atoms: _297  and  _299
REMARK  125  A    between atoms: _299  and  _300
REMARK  126  A    between atoms: _299  and  _302
REMARK  127  A    between atoms: _302  and  _303
REMARK  128  A    between atoms: _303  and  _304
REMARK  129  A    between atoms: _307  and  _309
REMARK  130  A    between atoms: _309  and  _310
REMARK  131  A    between atoms: _309  and  _312
REMARK  132  A    between atoms: _312  and  _313
REMARK  133  A    between atoms: _316  and  _318
REMARK  134  A    between atoms: _318  and  _319
REMARK  135  A    between atoms: _322  and  _324
REMARK  136  A    between atoms: _324  and  _325
REMARK  137  A    between atoms: _324  and  _327
REMARK  138  A    between atoms: _327  and  _328
REMARK  139  A    between atoms: _328  and  _451
REMARK  140  A    between atoms: _329  and  _331
REMARK  141  A    between atoms: _331  and  _332
REMARK  142  A    between atoms: _331  and  _334
REMARK  143  A    between atoms: _334  and  _335
REMARK  144  A    between atoms: _335  and  _336
REMARK  145  A    between atoms: _341  and  _343
REMARK  146  A    between atoms: _343  and  _344
REMARK  147  A    between atoms: _346  and  _348
REMARK  148  A    between atoms: _348  and  _349
REMARK  149  A    between atoms: _348  and  _351
REMARK  150  A    between atoms: _351  and  _352
REMARK  151  A    between atoms: _355  and  _357
REMARK  152  A    between atoms: _357  and  _358
REMARK  153  A    between atoms: _357  and  _360
REMARK  154  A    between atoms: _360  and  _361
REMARK  155  A    between atoms: _363  and  _365
REMARK  156  A    between atoms: _365  and  _366
REMARK  157  A    between atoms: _368  and  _370
REMARK  158  A    between atoms: _370  and  _371
REMARK  159  A    between atoms: _373  and  _375
REMARK  160  A    between atoms: _375  and  _376
REMARK  161  A    between atoms: _375  and  _378
REMARK  162  A    between atoms: _378  and  _379
REMARK  163  A    between atoms: _384  and  _386
REMARK  164  A    between atoms: _386  and  _387
REMARK  165  A    between atoms: _386  and  _389
REMARK  166  A    between atoms: _389  and  _390
REMARK  167  A    between atoms: _393  and  _395
REMARK  168  A    between atoms: _395  and  _396
REMARK  169  A    between atoms: _395  and  _398
REMARK  170  A    between atoms: _401  and  _403
REMARK  171  A    between atoms: _403  and  _404
REMARK  172  A    between atoms: _403  and  _406
REMARK  173  A    between atoms: _406  and  _407
REMARK  174  A    between atoms: _409  and  _411
REMARK  175  A    between atoms: _411  and  _412
REMARK  176  A    between atoms: _411  and  _414
REMARK  177  A    between atoms: _414  and  _415
REMARK  178  A    between atoms: _425  and  _427
REMARK  179  A    between atoms: _427  and  _428
REMARK  180  A    between atoms: _430  and  _432
REMARK  181  A    between atoms: _432  and  _433
REMARK  182  A    between atoms: _432  and  _435
REMARK  183  A    between atoms: _435  and  _436
REMARK  184  A    between atoms: _436  and  _437
REMARK  185  A    between atoms: _440  and  _442
REMARK  186  A    between atoms: _442  and  _443
REMARK  187  A    between atoms: _445  and  _447
REMARK  188  A    between atoms: _447  and  _448
REMARK  189  A    between atoms: _447  and  _450
REMARK  190  A    between atoms: _450  and  _451
REMARK  191  A    between atoms: _452  and  _454
REMARK  192  A    between atoms: _454  and  _455
REMARK  193  A    between atoms: _458  and  _460
REMARK  194  A    between atoms: _460  and  _461
REMARK  195  A    between atoms: _460  and  _463
REMARK  196  A    between atoms: _463  and  _464
REMARK  197  A    between atoms: _464  and  _465
REMARK  198  A    between atoms: _465  and  _466
REMARK  199  A    between atoms: _475  and  _477
REMARK  200  A    between atoms: _477  and  _478
REMARK  201  A    between atoms: _477  and  _480
REMARK  202  A    between atoms: _480  and  _481
REMARK  203  A    between atoms: _481  and  _482
REMARK  204  A    between atoms: _482  and  _483
REMARK  205  A    between atoms: _483  and  _484
REMARK  206  A    between atoms: _488  and  _490
REMARK  207  A    between atoms: _490  and  _491
REMARK  208  A    between atoms: _490  and  _493
REMARK  209  A    between atoms: _493  and  _494
REMARK  210  A    between atoms: _499  and  _500
REMARK  211  A    between atoms: _502  and  _504
REMARK  212  A    between atoms: _504  and  _505
REMARK  213  A    between atoms: _507  and  _509
REMARK  214  A    between atoms: _509  and  _510
REMARK  215  A    between atoms: _509  and  _512
REMARK  216  A    between atoms: _512  and  _513
REMARK  217  A    between atoms: _516  and  _518
REMARK  218  A    between atoms: _518  and  _519
REMARK  219  A    between atoms: _518  and  _521
REMARK  220  A    between atoms: _521  and  _522
REMARK  221  A    between atoms: _527  and  _528
REMARK  222  A    between atoms: _530  and  _532
REMARK  223  A    between atoms: _532  and  _533
REMARK  224  A    between atoms: _532  and  _535
REMARK  225  A    between atoms: _535  and  _536
REMARK                            x       y       z     vdW  Elec       q    Type
REMARK                         _______ _______ _______ _____ _____    ______ ____
ROOT
ATOM      1  CB  GLN A   1       4.560  15.290  17.308  0.00  0.00    +0.035 C 
ENDROOT
BRANCH   1   2
ATOM      2  CA  GLN A   1       4.649  15.831  15.872  0.00  0.00    +0.134 C 
BRANCH   2   3
ATOM      3  N   GLN A   1       5.011  14.766  14.945  0.00  0.00    -0.239 NA
ATOM      4  H   GLN A   1       5.689  14.039  15.250  0.00  0.00    +0.142 HD
ENDBRANCH   2   3
BRANCH   2   5
ATOM      5  C   GLN A   1       5.604  17.019  15.793  0.00  0.00    +0.224 C 
ATOM      6  O   GLN A   1       5.321  18.082  16.347  0.00  0.00    -0.287 OA
ENDBRANCH   2   5
ENDBRANCH   1   2
BRANCH   1   7
ATOM      7  CG  GLN A   1       3.672  14.052  17.467  0.00  0.00    +0.087 C 
BRANCH   7   8
ATOM      8  CD  GLN A   1       2.180  14.321  17.300  0.00  0.00    +0.219 C 
ATOM      9  OE1 GLN A   1       1.721  15.462  17.386  0.00  0.00    -0.275 OA
ATOM     10  NE2 GLN A   1       1.414  13.257  17.071  0.00  0.00    -0.329 N 
ATOM     11 HE21 GLN A   1       1.843  12.312  17.006  0.00  0.00    +0.145 HD
ATOM     12 HE22 GLN A   1       0.387  13.371  16.957  0.00  0.00    +0.145 HD
ENDBRANCH   7   8
ENDBRANCH   1   7
TORSDOF 5
REMARK  Name = ../refined-set-2016/2jkh/2jkh_pocket.pdb
REMARK  225 active torsions:
REMARK  status: ('A' for Active; 'I' for Inactive)
REMARK    1  A    between atoms: _1  and  _5
REMARK    2  A    between atoms: _5  and  _6
REMARK    3  A    between atoms: _5  and  _8
REMARK    4  A    between atoms: _8  and  _9
REMARK    5  A    between atoms: _12  and  _14
REMARK    6  A    between atoms: _14  and  _15
REMARK    7  A    between atoms: _14  and  _17
REMARK    8  A    between atoms: _20  and  _22
REMARK    9  A    between atoms: _22  and  _23
REMARK   10  A    between atoms: _22  and  _25
REMARK   11  A    between atoms: _25  and  _26
REMARK   12  A    between atoms: _32  and  _34
REMARK   13  A    between atoms: _34  and  _35
REMARK   14  A    between atoms: _34  and  _37
REMARK   15  A    between atoms: _37  and  _38
REMARK   16  A    between atoms: _43  and  _45
REMARK   17  A    between atoms: _45  and  _46
REMARK   18  A    between atoms: _45  and  _48
REMARK   19  A    between atoms: _48  and  _49
REMARK   20  A    between atoms: _49  and  _50
REMARK   21  A    between atoms: _55  and  _57
REMARK   22  A    between atoms: _57  and  _58
REMARK   23  A    between atoms: _57  and  _60
REMARK   24  A    between atoms: _60  and  _61
REMARK   25  A    between atoms: _67  and  _69
REMARK   26  A    between atoms: _69  and  _70
REMARK   27  A    between atoms: _69  and  _72
REMARK   28  A    between atoms: _72  and  _73
REMARK   29  A    between atoms: _76  and  _78
REMARK   30  A    between atoms: _78  and  _79
REMARK   31  A    between atoms: _78  and  _81
REMARK   32  A    between atoms: _81  and  _82
REMARK   33  A    between atoms: _82  and  _83
REMARK   34  A    between atoms: _83  and  _84
REMARK   35  A    between atoms: _84  and  _85
REMARK   36  A    between atoms: _89  and  _91
REMARK   37  A    between atoms: _91  and  _92
REMARK   38  A    between atoms: _91  and  _94
REMARK   39  A    between atoms: _94  and  _95
REMARK   40  A    between atoms: _95  and  _96
REMARK   41  A    between atoms: _99  and  _101
REMARK   42  A    between atoms: _101  and  _102
REMARK   43  A    between atoms: _101  and  _104
REMARK   44  A    between atoms: _104  and  _105
REMARK   45  A    between atoms: _108  and  _110
REMARK   46  A    between atoms: _110  and  _111
REMARK   47  A    between atoms: _110  and  _113
REMARK   48  A    between atoms: _113  and  _114
REMARK   49  A    between atoms: _119  and  _120
REMARK   50  A    between atoms: _122  and  _124
REMARK   51  A    between atoms: _124  and  _125
REMARK   52  A    between atoms: _124  and  _127
REMARK   53  A    between atoms: _127  and  _128
REMARK   54  A    between atoms: _131  and  _133
REMARK   55  A    between atoms: _133  and  _134
REMARK   56  A    between atoms: _133  and  _136
REMARK   57  A    between atoms: _136  and  _137
REMARK   58  A    between atoms: _140  and  _142
REMARK   59  A    between atoms: _142  and  _143
REMARK   60  A    between atoms: _142  and  _145
REMARK   61  A    between atoms: _148  and  _150
REMARK   62  A    between atoms: _150  and  _151
REMARK   63  A    between atoms: _150  and  _153
REMARK   64  A    between atoms: _153  and  _154
REMARK   65  A    between atoms: _154  and  _155
REMARK   66  A    between atoms: _155  and  _156
REMARK   67  A    between atoms: _165  and  _167
REMARK   68  A    between atoms: _167  and  _168
REMARK   69  A    between atoms: _167  and  _170
REMARK   70  A    between atoms: _170  and  _171
REMARK   71  A    between atoms: _176  and  _178
REMARK   72  A    between atoms: _178  and  _179
REMARK   73  A    between atoms: _178  and  _181
REMARK   74  A    between atoms: _181  and  _182
REMARK   75  A    between atoms: _182  and  _183
REMARK   76  A    between atoms: _186  and  _188
REMARK   77  A    between atoms: _188  and  _189
REMARK   78  A    between atoms: _188  and  _191
REMARK   79  A    between atoms: _191  and  _192
REMARK   80  A    between atoms: _192  and  _193
REMARK   81  A    between atoms: _193  and  _194
REMARK   82  A    between atoms: _194  and  _195
REMARK   83  A    between atoms: _199  and  _201
REMARK   84  A    between atoms: _201  and  _202
REMARK   85  A    between atoms: _204  and  _206
REMARK   86  A    between atoms: _206  and  _207
REMARK   87  A    between atoms: _206  and  _209
REMARK   88  A    between atoms: _212  and  _214
REMARK   89  A    between atoms: _214  and  _215
REMARK   90  A    between atoms: _214  and  _217
REMARK   91  A    between atoms: _217  and  _218
REMARK   92  A    between atoms: _220  and  _222
REMARK   93  A    between atoms: _222  and  _223
REMARK   94  A    between atoms: _222  and  _225
REMARK   95  A    between atoms: _225  and  _226
REMARK   96  A    between atoms: _228  and  _230
REMARK   97  A    between atoms: _230  and  _231
REMARK   98  A    between atoms: _230  and  _233
REMARK   99  A    between atoms: _233  and  _234
REMARK  100  A    between atoms: _240  and  _242
REMARK  101  A    between atoms: _242  and  _243
REMARK  102  A    between atoms: _242  and  _245
REMARK  103  A    between atoms: _245  and  _246
REMARK  104  A    between atoms: _249  and  _251
REMARK  105  A    between atoms: _251  and  _252
REMARK  106  A    between atoms: _251  and  _254
REMARK  107  A    between atoms: _254  and  _255
REMARK  108  A    between atoms: _258  and  _260
REMARK  109  A    between atoms: _260  and  _261
REMARK  110  A    between atoms: _260  and  _263
REMARK  111  A    between atoms: _263  and  _264
REMARK  112  A    between atoms: _264  and  _265
REMARK  113  A    between atoms: _267  and  _269
REMARK  114  A    between atoms: _269  and  _270
REMARK  115  A    between atoms: _269  and  _272
REMARK  116  A    between atoms: _272  and  _273
REMARK  117  A    between atoms: _279  and  _281
REMARK  118  A    between atoms: _281  and  _282
REMARK  119  A    between atoms: _281  and  _284
REMARK  120  A    between atoms: _286  and  _288
REMARK  121  A    between atoms: _288  and  _289
REMARK  122  A    between atoms: _292  and  _294
REMARK  123  A    between atoms: _294  and  _295
REMARK  124  A    between atoms: _297  and  _299
REMARK  125  A    between atoms: _299  and  _300
REMARK  126  A    between atoms: _299  and  _302
REMARK  127  A    between atoms: _302  and  _303
REMARK  128  A    between atoms: _303  and  _304
REMARK  129  A    between atoms: _307  and  _309
REMARK  130  A    between atoms: _309  and  _310
REMARK  131  A    between atoms: _309  and  _312
REMARK  132  A    between atoms: _312  and  _313
REMARK  133  A    between atoms: _316  and  _318
REMARK  134  A    between atoms: _318  and  _319
REMARK  135  A    between atoms: _322  and  _324
REMARK  136  A    between atoms: _324  and  _325
REMARK  137  A    between atoms: _324  and  _327
REMARK  138  A    between atoms: _327  and  _328
REMARK  139  A    between atoms: _328  and  _451
REMARK  140  A    between atoms: _329  and  _331
REMARK  141  A    between atoms: _331  and  _332
REMARK  142  A    between atoms: _331  and  _334
REMARK  143  A    between atoms: _334  and  _335
REMARK  144  A    between atoms: _335  and  _336
REMARK  145  A    between atoms: _341  and  _343
REMARK  146  A    between atoms: _343  and  _344
REMARK  147  A    between atoms: _346  and  _348
REMARK  148  A    between atoms: _348  and  _349
REMARK  149  A    between atoms: _348  and  _351
REMARK  150  A    between atoms: _351  and  _352
REMARK  151  A    between atoms: _355  and  _357
REMARK  152  A    between atoms: _357  and  _358
REMARK  153  A    between atoms: _357  and  _360
REMARK  154  A    between atoms: _360  and  _361
REMARK  155  A    between atoms: _363  and  _365
REMARK  156  A    between atoms: _365  and  _366
REMARK  157  A    between atoms: _368  and  _370
REMARK  158  A    between atoms: _370  and  _371
REMARK  159  A    between atoms: _373  and  _375
REMARK  160  A    between atoms: _375  and  _376
REMARK  161  A    between atoms: _375  and  _378
REMARK  162  A    between atoms: _378  and  _379
REMARK  163  A    between atoms: _384  and  _386
REMARK  164  A    between atoms: _386  and  _387
REMARK  165  A    between atoms: _386  and  _389
REMARK  166  A    between atoms: _389  and  _390
REMARK  167  A    between atoms: _393  and  _395
REMARK  168  A    between atoms: _395  and  _396
REMARK  169  A    between atoms: _395  and  _398
REMARK  170  A    between atoms: _401  and  _403
REMARK  171  A    between atoms: _403  and  _404
REMARK  172  A    between atoms: _403  and  _406
REMARK  173  A    between atoms: _406  and  _407
REMARK  174  A    between atoms: _409  and  _411
REMARK  175  A    between atoms: _411  and  _412
REMARK  176  A    between atoms: _411  and  _414
REMARK  177  A    between atoms: _414  and  _415
REMARK  178  A    between atoms: _425  and  _427
REMARK  179  A    between atoms: _427  and  _428
REMARK  180  A    between atoms: _430  and  _432
REMARK  181  A    between atoms: _432  and  _433
REMARK  182  A    between atoms: _432  and  _435
REMARK  183  A    between atoms: _435  and  _436
REMARK  184  A    between atoms: _436  and  _437
REMARK  185  A    between atoms: _440  and  _442
REMARK  186  A    between atoms: _442  and  _443
REMARK  187  A    between atoms: _445  and  _447
REMARK  188  A    between atoms: _447  and  _448
REMARK  189  A    between atoms: _447  and  _450
REMARK  190  A    between atoms: _450  and  _451
REMARK  191  A    between atoms: _452  and  _454
REMARK  192  A    between atoms: _454  and  _455
REMARK  193  A    between atoms: _458  and  _460
REMARK  194  A    between atoms: _460  and  _461
REMARK  195  A    between atoms: _460  and  _463
REMARK  196  A    between atoms: _463  and  _464
REMARK  197  A    between atoms: _464  and  _465
REMARK  198  A    between atoms: _465  and  _466
REMARK  199  A    between atoms: _475  and  _477
REMARK  200  A    between atoms: _477  and  _478
REMARK  201  A    between atoms: _477  and  _480
REMARK  202  A    between atoms: _480  and  _481
REMARK  203  A    between atoms: _481  and  _482
REMARK  204  A    between atoms: _482  and  _483
REMARK  205  A    between atoms: _483  and  _484
REMARK  206  A    between atoms: _488  and  _490
REMARK  207  A    between atoms: _490  and  _491
REMARK  208  A    between atoms: _490  and  _493
REMARK  209  A    between atoms: _493  and  _494
REMARK  210  A    between atoms: _499  and  _500
REMARK  211  A    between atoms: _502  and  _504
REMARK  212  A    between atoms: _504  and  _505
REMARK  213  A    between atoms: _507  and  _509
REMARK  214  A    between atoms: _509  and  _510
REMARK  215  A    between atoms: _509  and  _512
REMARK  216  A    between atoms: _512  and  _513
REMARK  217  A    between atoms: _516  and  _518
REMARK  218  A    between atoms: _518  and  _519
REMARK  219  A    between atoms: _518  and  _521
REMARK  220  A    between atoms: _521  and  _522
REMARK  221  A    between atoms: _527  and  _528
REMARK  222  A    between atoms: _530  and  _532
REMARK  223  A    between atoms: _532  and  _533
REMARK  224  A    between atoms: _532  and  _535
REMARK  225  A    between atoms: _535  and  _536
REMARK                            x       y       z     vdW  Elec       q    Type
REMARK                         _______ _______ _______ _____ _____    ______ ____
ROOT
ATOM      1  CA  GLU A   4      -5.625   6.468  12.290  0.00  0.00    +0.149 C 
ENDROOT
BRANCH   1   4
ATOM      2  C   LYS A   3      -3.276   7.102  12.501  0.00  0.00    +0.241 C 
ATOM      3  O   LYS A   3      -3.497   7.677  13.565  0.00  0.00    -0.273 OA
ATOM      4  N   GLU A   4      -4.230   6.460  11.830  0.00  0.00    -0.297 N 
ATOM      5  H   GLU A   4      -3.983   5.942  10.963  0.00  0.00    +0.150 HD
BRANCH   2   6
ATOM      6  CA  LYS A   3      -1.877   7.123  11.874  0.00  0.00    +0.149 C 
BRANCH   6   9
ATOM      7  C   THR A   2      -1.497   4.703  11.675  0.00  0.00    +0.243 C 
ATOM      8  O   THR A   2      -1.788   4.515  12.860  0.00  0.00    -0.273 OA
ATOM      9  N   LYS A   3      -1.555   5.903  11.111  0.00  0.00    -0.297 N 
ATOM     10  H   LYS A   3      -1.366   5.986  10.092  0.00  0.00    +0.150 HD
BRANCH   7  11
ATOM     11  CA  THR A   2      -1.053   3.537  10.800  0.00  0.00    +0.176 C 
BRANCH  11  13
ATOM     12  C   PHE A   1       1.309   2.860  10.648  0.00  0.00    +0.239 C 
ATOM     13  N   THR A   2       0.189   2.986  11.354  0.00  0.00    -0.295 N 
ATOM     14  H   THR A   2       0.194   2.679  12.348  0.00  0.00    +0.150 HD
ATOM     15  O   PHE A   1       1.427   3.236   9.469  0.00  0.00    -0.274 OA
BRANCH  12  16
ATOM     16  CA  PHE A   1       2.500   2.226  11.364  0.00  0.00    +0.149 C 
BRANCH  16  17
ATOM     17  N   PHE A   1       3.115   1.198  10.527  0.00  0.00    -0.238 NA
ATOM     18  H   PHE A   1       4.128   1.250  10.298  0.00  0.00    +0.142 HD
ENDBRANCH  16  17
BRANCH  16  19
ATOM     19  CB  PHE A   1       3.486   3.321  11.760  0.00  0.00    +0.053 C 
BRANCH  19  20
ATOM     20  CG  PHE A   1       2.827   4.486  12.461  0.00  0.00    -0.020 A 
ATOM     21  CD2 PHE A   1       2.178   4.306  13.697  0.00  0.00    -0.004 A 
ATOM     22  CE2 PHE A   1       1.548   5.347  14.326  0.00  0.00    -0.000 A 
ATOM     23  CZ  PHE A   1       1.562   6.610  13.757  0.00  0.00    -0.000 A 
ATOM     24  CE1 PHE A   1       2.218   6.814  12.522  0.00  0.00    -0.000 A 
ATOM     25  CD1 PHE A   1       2.835   5.757  11.888  0.00  0.00    -0.004 A 
ENDBRANCH  19  20
ENDBRANCH  16  19
ENDBRANCH  12  16
ENDBRANCH  11  13
BRANCH  11  26
ATOM     26  CB  THR A   2      -2.178   2.474  10.781  0.00  0.00    +0.137 C 
ATOM     27  CG2 THR A   2      -3.393   2.977  10.003  0.00  0.00    +0.034 C 
BRANCH  26  28
ATOM     28  OG1 THR A   2      -1.699   1.247  10.206  0.00  0.00    -0.382 OA
ATOM     29  HG1 THR A   2      -0.941   0.906  10.744  0.00  0.00    +0.210 HD
ENDBRANCH  26  28
ENDBRANCH  11  26
ENDBRANCH   7  11
ENDBRANCH   6   9
BRANCH   6  30
ATOM     30  CB  LYS A   3      -1.715   8.369  10.984  0.00  0.00    +0.029 C 
BRANCH  30  31
ATOM     31  CG  LYS A   3      -1.699   9.682  11.734  0.00  0.00    +0.000 C 
BRANCH  31  32
ATOM     32  CD  LYS A   3      -1.595  10.853  10.774  0.00  0.00    -0.024 C 
BRANCH  32  33
ATOM     33  CE  LYS A   3      -1.642  12.178  11.510  0.00  0.00    -0.086 C 
BRANCH  33  34
ATOM     34  NZ  LYS A   3      -1.487  13.320  10.570  0.00  0.00    +0.380 N 
ATOM     35  HZ1 LYS A   3      -1.523  14.213  11.102  0.00  0.00    -0.089 HD
ATOM     36  HZ2 LYS A   3      -0.572  13.243  10.081  0.00  0.00    -0.089 HD
ATOM     37  HZ3 LYS A   3      -2.257  13.300   9.872  0.00  0.00    -0.089 HD
ENDBRANCH  33  34
ENDBRANCH  32  33
ENDBRANCH  31  32
ENDBRANCH  30  31
ENDBRANCH   6  30
ENDBRANCH   2   6
ENDBRANCH   1   4
BRANCH   1  38
ATOM     38  C   GLU A   4      -5.844   5.650  13.568  0.00  0.00    +0.241 C 
ATOM     39  O   GLU A   4      -6.619   6.036  14.445  0.00  0.00    -0.273 OA
ATOM     40  N   THR A   5      -5.158   4.522  13.674  0.00  0.00    -0.295 N 
ATOM     41  H   THR A   5      -4.460   4.275  12.944  0.00  0.00    +0.150 HD
BRANCH  40  42
ATOM     42  CA  THR A   5      -5.371   3.615  14.812  0.00  0.00    +0.176 C 
BRANCH  42  43
ATOM     43  C   THR A   5      -4.180   3.612  15.780  0.00  0.00    +0.243 C 
ATOM     44  O   THR A   5      -4.300   3.094  16.895  0.00  0.00    -0.273 OA
ATOM     45  N   TYR A   6      -3.048   4.166  15.332  0.00  0.00    -0.297 N 
ATOM     46  H   TYR A   6      -3.100   4.740  14.467  0.00  0.00    +0.150 HD
BRANCH  45  47
ATOM     47  CA  TYR A   6      -1.724   4.019  15.982  0.00  0.00    +0.153 C 
BRANCH  47  48
ATOM     48  C   TYR A   6      -1.300   2.557  16.084  0.00  0.00    +0.241 C 
ATOM     49  O   TYR A   6      -0.484   2.185  16.940  0.00  0.00    -0.273 OA
ATOM     50  N   ASP A   7      -1.818   1.682  15.226  0.00  0.00    -0.298 N 
ATOM     51  H   ASP A   7      -2.594   1.961  14.592  0.00  0.00    +0.150 HD
BRANCH  50  52
ATOM     52  CA  ASP A   7      -1.283   0.331  15.187  0.00  0.00    +0.148 C 
BRANCH  52  53
ATOM     53  C   ASP A   7       0.194   0.361  14.722  0.00  0.00    +0.227 C 
ATOM     54  O   ASP A   7       0.582   1.250  13.961  0.00  0.00    -0.286 OA
ENDBRANCH  52  53
BRANCH  52  55
ATOM     55  CB  ASP A   7      -2.155  -0.571  14.281  0.00  0.00    +0.142 C 
BRANCH  55  56
ATOM     56  CG  ASP A   7      -1.917  -2.045  14.519  0.00  0.00    +0.367 C 
ATOM     57  OD2 ASP A   7      -1.352  -2.442  15.557  0.00  0.00    -0.246 OA
ATOM     58  OD1 ASP A   7      -2.316  -2.873  13.679  0.00  0.00    -0.246 OA
ENDBRANCH  55  56
ENDBRANCH  52  55
ENDBRANCH  50  52
ENDBRANCH  47  48
BRANCH  47  59
ATOM     59  CB  TYR A   6      -1.688   4.717  17.358  0.00  0.00    +0.055 C 
BRANCH  59  60
ATOM     60  CG  TYR A   6      -1.500   6.212  17.349  0.00  0.00    -0.020 A 
ATOM     61  CD2 TYR A   6      -1.072   6.872  18.501  0.00  0.00    -0.001 A 
ATOM     62  CE2 TYR A   6      -0.915   8.243  18.544  0.00  0.00    +0.036 A 
ATOM     63  CZ  TYR A   6      -1.221   8.997  17.401  0.00  0.00    +0.134 A 
ATOM     64  CE1 TYR A   6      -1.664   8.365  16.250  0.00  0.00    +0.036 A 
ATOM     65  CD1 TYR A   6      -1.821   6.996  16.226  0.00  0.00    -0.001 A 
BRANCH  63  66
ATOM     66  OH  TYR A   6      -1.057  10.349  17.430  0.00  0.00    -0.506 OA
ATOM     67  HH  TYR A   6      -1.314  10.730  16.553  0.00  0.00    +0.292 HD
ENDBRANCH  63  66
ENDBRANCH  59  60
ENDBRANCH  47  59
ENDBRANCH  45  47
ENDBRANCH  42  43
BRANCH  42  68
ATOM     68  CB  THR A   5      -5.587   2.164  14.352  0.00  0.00    +0.137 C 
ATOM     69  CG2 THR A   5      -6.867   2.029  13.479  0.00  0.00    +0.034 C 
BRANCH  68  70
ATOM     70  OG1 THR A   5      -4.454   1.745  13.584  0.00  0.00    -0.382 OA
ATOM     71  HG1 THR A   5      -4.587   0.811  13.285  0.00  0.00    +0.210 HD
ENDBRANCH  68  70
ENDBRANCH  42  68
ENDBRANCH  40  42
ENDBRANCH   1  38
BRANCH   1  72
ATOM     72  CB  GLU A   4      -6.567   5.971  11.185  0.00  0.00    +0.041 C 
BRANCH  72  73
ATOM     73  CG  GLU A   4      -6.813   6.973  10.056  0.00  0.00    +0.116 C 
BRANCH  73  74
ATOM     74  CD  GLU A   4      -5.612   7.153   9.144  0.00  0.00    +0.365 C 
ATOM     75  OE2 GLU A   4      -4.865   6.173   8.928  0.00  0.00    -0.246 OA
ATOM     76  OE1 GLU A   4      -5.416   8.277   8.639  0.00  0.00    -0.246 OA
ENDBRANCH  73  74
ENDBRANCH  72  73
ENDBRANCH   1  72
TORSDOF 33
REMARK  Name = ../refined-set-2016/2jkh/2jkh_pocket.pdb
REMARK  225 active torsions:
REMARK  status: ('A' for Active; 'I' for Inactive)
REMARK    1  A    between atoms: _1  and  _5
REMARK    2  A    between atoms: _5  and  _6
REMARK    3  A    between atoms: _5  and  _8
REMARK    4  A    between atoms: _8  and  _9
REMARK    5  A    between atoms: _12  and  _14
REMARK    6  A    between atoms: _14  and  _15
REMARK    7  A    between atoms: _14  and  _17
REMARK    8  A    between atoms: _20  and  _22
REMARK    9  A    between atoms: _22  and  _23
REMARK   10  A    between atoms: _22  and  _25
REMARK   11  A    between atoms: _25  and  _26
REMARK   12  A    between atoms: _32  and  _34
REMARK   13  A    between atoms: _34  and  _35
REMARK   14  A    between atoms: _34  and  _37
REMARK   15  A    between atoms: _37  and  _38
REMARK   16  A    between atoms: _43  and  _45
REMARK   17  A    between atoms: _45  and  _46
REMARK   18  A    between atoms: _45  and  _48
REMARK   19  A    between atoms: _48  and  _49
REMARK   20  A    between atoms: _49  and  _50
REMARK   21  A    between atoms: _55  and  _57
REMARK   22  A    between atoms: _57  and  _58
REMARK   23  A    between atoms: _57  and  _60
REMARK   24  A    between atoms: _60  and  _61
REMARK   25  A    between atoms: _67  and  _69
REMARK   26  A    between atoms: _69  and  _70
REMARK   27  A    between atoms: _69  and  _72
REMARK   28  A    between atoms: _72  and  _73
REMARK   29  A    between atoms: _76  and  _78
REMARK   30  A    between atoms: _78  and  _79
REMARK   31  A    between atoms: _78  and  _81
REMARK   32  A    between atoms: _81  and  _82
REMARK   33  A    between atoms: _82  and  _83
REMARK   34  A    between atoms: _83  and  _84
REMARK   35  A    between atoms: _84  and  _85
REMARK   36  A    between atoms: _89  and  _91
REMARK   37  A    between atoms: _91  and  _92
REMARK   38  A    between atoms: _91  and  _94
REMARK   39  A    between atoms: _94  and  _95
REMARK   40  A    between atoms: _95  and  _96
REMARK   41  A    between atoms: _99  and  _101
REMARK   42  A    between atoms: _101  and  _102
REMARK   43  A    between atoms: _101  and  _104
REMARK   44  A    between atoms: _104  and  _105
REMARK   45  A    between atoms: _108  and  _110
REMARK   46  A    between atoms: _110  and  _111
REMARK   47  A    between atoms: _110  and  _113
REMARK   48  A    between atoms: _113  and  _114
REMARK   49  A    between atoms: _119  and  _120
REMARK   50  A    between atoms: _122  and  _124
REMARK   51  A    between atoms: _124  and  _125
REMARK   52  A    between atoms: _124  and  _127
REMARK   53  A    between atoms: _127  and  _128
REMARK   54  A    between atoms: _131  and  _133
REMARK   55  A    between atoms: _133  and  _134
REMARK   56  A    between atoms: _133  and  _136
REMARK   57  A    between atoms: _136  and  _137
REMARK   58  A    between atoms: _140  and  _142
REMARK   59  A    between atoms: _142  and  _143
REMARK   60  A    between atoms: _142  and  _145
REMARK   61  A    between atoms: _148  and  _150
REMARK   62  A    between atoms: _150  and  _151
REMARK   63  A    between atoms: _150  and  _153
REMARK   64  A    between atoms: _153  and  _154
REMARK   65  A    between atoms: _154  and  _155
REMARK   66  A    between atoms: _155  and  _156
REMARK   67  A    between atoms: _165  and  _167
REMARK   68  A    between atoms: _167  and  _168
REMARK   69  A    between atoms: _167  and  _170
REMARK   70  A    between atoms: _170  and  _171
REMARK   71  A    between atoms: _176  and  _178
REMARK   72  A    between atoms: _178  and  _179
REMARK   73  A    between atoms: _178  and  _181
REMARK   74  A    between atoms: _181  and  _182
REMARK   75  A    between atoms: _182  and  _183
REMARK   76  A    between atoms: _186  and  _188
REMARK   77  A    between atoms: _188  and  _189
REMARK   78  A    between atoms: _188  and  _191
REMARK   79  A    between atoms: _191  and  _192
REMARK   80  A    between atoms: _192  and  _193
REMARK   81  A    between atoms: _193  and  _194
REMARK   82  A    between atoms: _194  and  _195
REMARK   83  A    between atoms: _199  and  _201
REMARK   84  A    between atoms: _201  and  _202
REMARK   85  A    between atoms: _204  and  _206
REMARK   86  A    between atoms: _206  and  _207
REMARK   87  A    between atoms: _206  and  _209
REMARK   88  A    between atoms: _212  and  _214
REMARK   89  A    between atoms: _214  and  _215
REMARK   90  A    between atoms: _214  and  _217
REMARK   91  A    between atoms: _217  and  _218
REMARK   92  A    between atoms: _220  and  _222
REMARK   93  A    between atoms: _222  and  _223
REMARK   94  A    between atoms: _222  and  _225
REMARK   95  A    between atoms: _225  and  _226
REMARK   96  A    between atoms: _228  and  _230
REMARK   97  A    between atoms: _230  and  _231
REMARK   98  A    between atoms: _230  and  _233
REMARK   99  A    between atoms: _233  and  _234
REMARK  100  A    between atoms: _240  and  _242
REMARK  101  A    between atoms: _242  and  _243
REMARK  102  A    between atoms: _242  and  _245
REMARK  103  A    between atoms: _245  and  _246
REMARK  104  A    between atoms: _249  and  _251
REMARK  105  A    between atoms: _251  and  _252
REMARK  106  A    between atoms: _251  and  _254
REMARK  107  A    between atoms: _254  and  _255
REMARK  108  A    between atoms: _258  and  _260
REMARK  109  A    between atoms: _260  and  _261
REMARK  110  A    between atoms: _260  and  _263
REMARK  111  A    between atoms: _263  and  _264
REMARK  112  A    between atoms: _264  and  _265
REMARK  113  A    between atoms: _267  and  _269
REMARK  114  A    between atoms: _269  and  _270
REMARK  115  A    between atoms: _269  and  _272
REMARK  116  A    between atoms: _272  and  _273
REMARK  117  A    between atoms: _279  and  _281
REMARK  118  A    between atoms: _281  and  _282
REMARK  119  A    between atoms: _281  and  _284
REMARK  120  A    between atoms: _286  and  _288
REMARK  121  A    between atoms: _288  and  _289
REMARK  122  A    between atoms: _292  and  _294
REMARK  123  A    between atoms: _294  and  _295
REMARK  124  A    between atoms: _297  and  _299
REMARK  125  A    between atoms: _299  and  _300
REMARK  126  A    between atoms: _299  and  _302
REMARK  127  A    between atoms: _302  and  _303
REMARK  128  A    between atoms: _303  and  _304
REMARK  129  A    between atoms: _307  and  _309
REMARK  130  A    between atoms: _309  and  _310
REMARK  131  A    between atoms: _309  and  _312
REMARK  132  A    between atoms: _312  and  _313
REMARK  133  A    between atoms: _316  and  _318
REMARK  134  A    between atoms: _318  and  _319
REMARK  135  A    between atoms: _322  and  _324
REMARK  136  A    between atoms: _324  and  _325
REMARK  137  A    between atoms: _324  and  _327
REMARK  138  A    between atoms: _327  and  _328
REMARK  139  A    between atoms: _328  and  _451
REMARK  140  A    between atoms: _329  and  _331
REMARK  141  A    between atoms: _331  and  _332
REMARK  142  A    between atoms: _331  and  _334
REMARK  143  A    between atoms: _334  and  _335
REMARK  144  A    between atoms: _335  and  _336
REMARK  145  A    between atoms: _341  and  _343
REMARK  146  A    between atoms: _343  and  _344
REMARK  147  A    between atoms: _346  and  _348
REMARK  148  A    between atoms: _348  and  _349
REMARK  149  A    between atoms: _348  and  _351
REMARK  150  A    between atoms: _351  and  _352
REMARK  151  A    between atoms: _355  and  _357
REMARK  152  A    between atoms: _357  and  _358
REMARK  153  A    between atoms: _357  and  _360
REMARK  154  A    between atoms: _360  and  _361
REMARK  155  A    between atoms: _363  and  _365
REMARK  156  A    between atoms: _365  and  _366
REMARK  157  A    between atoms: _368  and  _370
REMARK  158  A    between atoms: _370  and  _371
REMARK  159  A    between atoms: _373  and  _375
REMARK  160  A    between atoms: _375  and  _376
REMARK  161  A    between atoms: _375  and  _378
REMARK  162  A    between atoms: _378  and  _379
REMARK  163  A    between atoms: _384  and  _386
REMARK  164  A    between atoms: _386  and  _387
REMARK  165  A    between atoms: _386  and  _389
REMARK  166  A    between atoms: _389  and  _390
REMARK  167  A    between atoms: _393  and  _395
REMARK  168  A    between atoms: _395  and  _396
REMARK  169  A    between atoms: _395  and  _398
REMARK  170  A    between atoms: _401  and  _403
REMARK  171  A    between atoms: _403  and  _404
REMARK  172  A    between atoms: _403  and  _406
REMARK  173  A    between atoms: _406  and  _407
REMARK  174  A    between atoms: _409  and  _411
REMARK  175  A    between atoms: _411  and  _412
REMARK  176  A    between atoms: _411  and  _414
REMARK  177  A    between atoms: _414  and  _415
REMARK  178  A    between atoms: _425  and  _427
REMARK  179  A    between atoms: _427  and  _428
REMARK  180  A    between atoms: _430  and  _432
REMARK  181  A    between atoms: _432  and  _433
REMARK  182  A    between atoms: _432  and  _435
REMARK  183  A    between atoms: _435  and  _436
REMARK  184  A    between atoms: _436  and  _437
REMARK  185  A    between atoms: _440  and  _442
REMARK  186  A    between atoms: _442  and  _443
REMARK  187  A    between atoms: _445  and  _447
REMARK  188  A    between atoms: _447  and  _448
REMARK  189  A    between atoms: _447  and  _450
REMARK  190  A    between atoms: _450  and  _451
REMARK  191  A    between atoms: _452  and  _454
REMARK  192  A    between atoms: _454  and  _455
REMARK  193  A    between atoms: _458  and  _460
REMARK  194  A    between atoms: _460  and  _461
REMARK  195  A    between atoms: _460  and  _463
REMARK  196  A    between atoms: _463  and  _464
REMARK  197  A    between atoms: _464  and  _465
REMARK  198  A    between atoms: _465  and  _466
REMARK  199  A    between atoms: _475  and  _477
REMARK  200  A    between atoms: _477  and  _478
REMARK  201  A    between atoms: _477  and  _480
REMARK  202  A    between atoms: _480  and  _481
REMARK  203  A    between atoms: _481  and  _482
REMARK  204  A    between atoms: _482  and  _483
REMARK  205  A    between atoms: _483  and  _484
REMARK  206  A    between atoms: _488  and  _490
REMARK  207  A    between atoms: _490  and  _491
REMARK  208  A    between atoms: _490  and  _493
REMARK  209  A    between atoms: _493  and  _494
REMARK  210  A    between atoms: _499  and  _500
REMARK  211  A    between atoms: _502  and  _504
REMARK  212  A    between atoms: _504  and  _505
REMARK  213  A    between atoms: _507  and  _509
REMARK  214  A    between atoms: _509  and  _510
REMARK  215  A    between atoms: _509  and  _512
REMARK  216  A    between atoms: _512  and  _513
REMARK  217  A    between atoms: _516  and  _518
REMARK  218  A    between atoms: _518  and  _519
REMARK  219  A    between atoms: _518  and  _521
REMARK  220  A    between atoms: _521  and  _522
REMARK  221  A    between atoms: _527  and  _528
REMARK  222  A    between atoms: _530  and  _532
REMARK  223  A    between atoms: _532  and  _533
REMARK  224  A    between atoms: _532  and  _535
REMARK  225  A    between atoms: _535  and  _536
REMARK                            x       y       z     vdW  Elec       q    Type
REMARK                         _______ _______ _______ _____ _____    ______ ____
ROOT
ATOM      1  CA  ASP A   1       3.372   2.489  16.872  0.00  0.00    +0.144 C 
ENDROOT
BRANCH   1   2
ATOM      2  N   ASP A   1       2.891   1.188  16.478  0.00  0.00    -0.239 NA
ATOM      3  H   ASP A   1       2.300   0.645  17.139  0.00  0.00    +0.142 HD
ENDBRANCH   1   2
BRANCH   1   4
ATOM      4  C   ASP A   1       4.770   2.359  17.507  0.00  0.00    +0.225 C 
ATOM      5  O   ASP A   1       4.942   2.414  18.773  0.00  0.00    -0.287 OA
ENDBRANCH   1   4
BRANCH   1   6
ATOM      6  CB  ASP A   1       2.391   3.157  17.841  0.00  0.00    +0.139 C 
BRANCH   6   7
ATOM      7  CG  ASP A   1       2.699   4.627  18.055  0.00  0.00    +0.367 C 
ATOM      8  OD2 ASP A   1       2.140   5.255  18.982  0.00  0.00    -0.246 OA
ATOM      9  OD1 ASP A   1       3.527   5.180  17.299  0.00  0.00    -0.246 OA
ENDBRANCH   6   7
ENDBRANCH   1   6
TORSDOF 4
REMARK  Name = ../refined-set-2016/2jkh/2jkh_pocket.pdb
REMARK  225 active torsions:
REMARK  status: ('A' for Active; 'I' for Inactive)
REMARK    1  A    between atoms: _1  and  _5
REMARK    2  A    between atoms: _5  and  _6
REMARK    3  A    between atoms: _5  and  _8
REMARK    4  A    between atoms: _8  and  _9
REMARK    5  A    between atoms: _12  and  _14
REMARK    6  A    between atoms: _14  and  _15
REMARK    7  A    between atoms: _14  and  _17
REMARK    8  A    between atoms: _20  and  _22
REMARK    9  A    between atoms: _22  and  _23
REMARK   10  A    between atoms: _22  and  _25
REMARK   11  A    between atoms: _25  and  _26
REMARK   12  A    between atoms: _32  and  _34
REMARK   13  A    between atoms: _34  and  _35
REMARK   14  A    between atoms: _34  and  _37
REMARK   15  A    between atoms: _37  and  _38
REMARK   16  A    between atoms: _43  and  _45
REMARK   17  A    between atoms: _45  and  _46
REMARK   18  A    between atoms: _45  and  _48
REMARK   19  A    between atoms: _48  and  _49
REMARK   20  A    between atoms: _49  and  _50
REMARK   21  A    between atoms: _55  and  _57
REMARK   22  A    between atoms: _57  and  _58
REMARK   23  A    between atoms: _57  and  _60
REMARK   24  A    between atoms: _60  and  _61
REMARK   25  A    between atoms: _67  and  _69
REMARK   26  A    between atoms: _69  and  _70
REMARK   27  A    between atoms: _69  and  _72
REMARK   28  A    between atoms: _72  and  _73
REMARK   29  A    between atoms: _76  and  _78
REMARK   30  A    between atoms: _78  and  _79
REMARK   31  A    between atoms: _78  and  _81
REMARK   32  A    between atoms: _81  and  _82
REMARK   33  A    between atoms: _82  and  _83
REMARK   34  A    between atoms: _83  and  _84
REMARK   35  A    between atoms: _84  and  _85
REMARK   36  A    between atoms: _89  and  _91
REMARK   37  A    between atoms: _91  and  _92
REMARK   38  A    between atoms: _91  and  _94
REMARK   39  A    between atoms: _94  and  _95
REMARK   40  A    between atoms: _95  and  _96
REMARK   41  A    between atoms: _99  and  _101
REMARK   42  A    between atoms: _101  and  _102
REMARK   43  A    between atoms: _101  and  _104
REMARK   44  A    between atoms: _104  and  _105
REMARK   45  A    between atoms: _108  and  _110
REMARK   46  A    between atoms: _110  and  _111
REMARK   47  A    between atoms: _110  and  _113
REMARK   48  A    between atoms: _113  and  _114
REMARK   49  A    between atoms: _119  and  _120
REMARK   50  A    between atoms: _122  and  _124
REMARK   51  A    between atoms: _124  and  _125
REMARK   52  A    between atoms: _124  and  _127
REMARK   53  A    between atoms: _127  and  _128
REMARK   54  A    between atoms: _131  and  _133
REMARK   55  A    between atoms: _133  and  _134
REMARK   56  A    between atoms: _133  and  _136
REMARK   57  A    between atoms: _136  and  _137
REMARK   58  A    between atoms: _140  and  _142
REMARK   59  A    between atoms: _142  and  _143
REMARK   60  A    between atoms: _142  and  _145
REMARK   61  A    between atoms: _148  and  _150
REMARK   62  A    between atoms: _150  and  _151
REMARK   63  A    between atoms: _150  and  _153
REMARK   64  A    between atoms: _153  and  _154
REMARK   65  A    between atoms: _154  and  _155
REMARK   66  A    between atoms: _155  and  _156
REMARK   67  A    between atoms: _165  and  _167
REMARK   68  A    between atoms: _167  and  _168
REMARK   69  A    between atoms: _167  and  _170
REMARK   70  A    between atoms: _170  and  _171
REMARK   71  A    between atoms: _176  and  _178
REMARK   72  A    between atoms: _178  and  _179
REMARK   73  A    between atoms: _178  and  _181
REMARK   74  A    between atoms: _181  and  _182
REMARK   75  A    between atoms: _182  and  _183
REMARK   76  A    between atoms: _186  and  _188
REMARK   77  A    between atoms: _188  and  _189
REMARK   78  A    between atoms: _188  and  _191
REMARK   79  A    between atoms: _191  and  _192
REMARK   80  A    between atoms: _192  and  _193
REMARK   81  A    between atoms: _193  and  _194
REMARK   82  A    between atoms: _194  and  _195
REMARK   83  A    between atoms: _199  and  _201
REMARK   84  A    between atoms: _201  and  _202
REMARK   85  A    between atoms: _204  and  _206
REMARK   86  A    between atoms: _206  and  _207
REMARK   87  A    between atoms: _206  and  _209
REMARK   88  A    between atoms: _212  and  _214
REMARK   89  A    between atoms: _214  and  _215
REMARK   90  A    between atoms: _214  and  _217
REMARK   91  A    between atoms: _217  and  _218
REMARK   92  A    between atoms: _220  and  _222
REMARK   93  A    between atoms: _222  and  _223
REMARK   94  A    between atoms: _222  and  _225
REMARK   95  A    between atoms: _225  and  _226
REMARK   96  A    between atoms: _228  and  _230
REMARK   97  A    between atoms: _230  and  _231
REMARK   98  A    between atoms: _230  and  _233
REMARK   99  A    between atoms: _233  and  _234
REMARK  100  A    between atoms: _240  and  _242
REMARK  101  A    between atoms: _242  and  _243
REMARK  102  A    between atoms: _242  and  _245
REMARK  103  A    between atoms: _245  and  _246
REMARK  104  A    between atoms: _249  and  _251
REMARK  105  A    between atoms: _251  and  _252
REMARK  106  A    between atoms: _251  and  _254
REMARK  107  A    between atoms: _254  and  _255
REMARK  108  A    between atoms: _258  and  _260
REMARK  109  A    between atoms: _260  and  _261
REMARK  110  A    between atoms: _260  and  _263
REMARK  111  A    between atoms: _263  and  _264
REMARK  112  A    between atoms: _264  and  _265
REMARK  113  A    between atoms: _267  and  _269
REMARK  114  A    between atoms: _269  and  _270
REMARK  115  A    between atoms: _269  and  _272
REMARK  116  A    between atoms: _272  and  _273
REMARK  117  A    between atoms: _279  and  _281
REMARK  118  A    between atoms: _281  and  _282
REMARK  119  A    between atoms: _281  and  _284
REMARK  120  A    between atoms: _286  and  _288
REMARK  121  A    between atoms: _288  and  _289
REMARK  122  A    between atoms: _292  and  _294
REMARK  123  A    between atoms: _294  and  _295
REMARK  124  A    between atoms: _297  and  _299
REMARK  125  A    between atoms: _299  and  _300
REMARK  126  A    between atoms: _299  and  _302
REMARK  127  A    between atoms: _302  and  _303
REMARK  128  A    between atoms: _303  and  _304
REMARK  129  A    between atoms: _307  and  _309
REMARK  130  A    between atoms: _309  and  _310
REMARK  131  A    between atoms: _309  and  _312
REMARK  132  A    between atoms: _312  and  _313
REMARK  133  A    between atoms: _316  and  _318
REMARK  134  A    between atoms: _318  and  _319
REMARK  135  A    between atoms: _322  and  _324
REMARK  136  A    between atoms: _324  and  _325
REMARK  137  A    between atoms: _324  and  _327
REMARK  138  A    between atoms: _327  and  _328
REMARK  139  A    between atoms: _328  and  _451
REMARK  140  A    between atoms: _329  and  _331
REMARK  141  A    between atoms: _331  and  _332
REMARK  142  A    between atoms: _331  and  _334
REMARK  143  A    between atoms: _334  and  _335
REMARK  144  A    between atoms: _335  and  _336
REMARK  145  A    between atoms: _341  and  _343
REMARK  146  A    between atoms: _343  and  _344
REMARK  147  A    between atoms: _346  and  _348
REMARK  148  A    between atoms: _348  and  _349
REMARK  149  A    between atoms: _348  and  _351
REMARK  150  A    between atoms: _351  and  _352
REMARK  151  A    between atoms: _355  and  _357
REMARK  152  A    between atoms: _357  and  _358
REMARK  153  A    between atoms: _357  and  _360
REMARK  154  A    between atoms: _360  and  _361
REMARK  155  A    between atoms: _363  and  _365
REMARK  156  A    between atoms: _365  and  _366
REMARK  157  A    between atoms: _368  and  _370
REMARK  158  A    between atoms: _370  and  _371
REMARK  159  A    between atoms: _373  and  _375
REMARK  160  A    between atoms: _375  and  _376
REMARK  161  A    between atoms: _375  and  _378
REMARK  162  A    between atoms: _378  and  _379
REMARK  163  A    between atoms: _384  and  _386
REMARK  164  A    between atoms: _386  and  _387
REMARK  165  A    between atoms: _386  and  _389
REMARK  166  A    between atoms: _389  and  _390
REMARK  167  A    between atoms: _393  and  _395
REMARK  168  A    between atoms: _395  and  _396
REMARK  169  A    between atoms: _395  and  _398
REMARK  170  A    between atoms: _401  and  _403
REMARK  171  A    between atoms: _403  and  _404
REMARK  172  A    between atoms: _403  and  _406
REMARK  173  A    between atoms: _406  and  _407
REMARK  174  A    between atoms: _409  and  _411
REMARK  175  A    between atoms: _411  and  _412
REMARK  176  A    between atoms: _411  and  _414
REMARK  177  A    between atoms: _414  and  _415
REMARK  178  A    between atoms: _425  and  _427
REMARK  179  A    between atoms: _427  and  _428
REMARK  180  A    between atoms: _430  and  _432
REMARK  181  A    between atoms: _432  and  _433
REMARK  182  A    between atoms: _432  and  _435
REMARK  183  A    between atoms: _435  and  _436
REMARK  184  A    between atoms: _436  and  _437
REMARK  185  A    between atoms: _440  and  _442
REMARK  186  A    between atoms: _442  and  _443
REMARK  187  A    between atoms: _445  and  _447
REMARK  188  A    between atoms: _447  and  _448
REMARK  189  A    between atoms: _447  and  _450
REMARK  190  A    between atoms: _450  and  _451
REMARK  191  A    between atoms: _452  and  _454
REMARK  192  A    between atoms: _454  and  _455
REMARK  193  A    between atoms: _458  and  _460
REMARK  194  A    between atoms: _460  and  _461
REMARK  195  A    between atoms: _460  and  _463
REMARK  196  A    between atoms: _463  and  _464
REMARK  197  A    between atoms: _464  and  _465
REMARK  198  A    between atoms: _465  and  _466
REMARK  199  A    between atoms: _475  and  _477
REMARK  200  A    between atoms: _477  and  _478
REMARK  201  A    between atoms: _477  and  _480
REMARK  202  A    between atoms: _480  and  _481
REMARK  203  A    between atoms: _481  and  _482
REMARK  204  A    between atoms: _482  and  _483
REMARK  205  A    between atoms: _483  and  _484
REMARK  206  A    between atoms: _488  and  _490
REMARK  207  A    between atoms: _490  and  _491
REMARK  208  A    between atoms: _490  and  _493
REMARK  209  A    between atoms: _493  and  _494
REMARK  210  A    between atoms: _499  and  _500
REMARK  211  A    between atoms: _502  and  _504
REMARK  212  A    between atoms: _504  and  _505
REMARK  213  A    between atoms: _507  and  _509
REMARK  214  A    between atoms: _509  and  _510
REMARK  215  A    between atoms: _509  and  _512
REMARK  216  A    between atoms: _512  and  _513
REMARK  217  A    between atoms: _516  and  _518
REMARK  218  A    between atoms: _518  and  _519
REMARK  219  A    between atoms: _518  and  _521
REMARK  220  A    between atoms: _521  and  _522
REMARK  221  A    between atoms: _527  and  _528
REMARK  222  A    between atoms: _530  and  _532
REMARK  223  A    between atoms: _532  and  _533
REMARK  224  A    between atoms: _532  and  _535
REMARK  225  A    between atoms: _535  and  _536
REMARK                            x       y       z     vdW  Elec       q    Type
REMARK                         _______ _______ _______ _____ _____    ______ ____
ROOT
ATOM      1  CA  VAL A   1       5.983   4.501  32.992  0.00  0.00    +0.133 C 
ENDROOT
BRANCH   1   2
ATOM      2  CB  VAL A   1       4.562   4.742  32.393  0.00  0.00    +0.023 C 
ATOM      3  CG2 VAL A   1       3.546   5.279  33.399  0.00  0.00    +0.002 C 
ATOM      4  CG1 VAL A   1       4.632   5.570  31.144  0.00  0.00    +0.002 C 
ENDBRANCH   1   2
BRANCH   1   5
ATOM      5  N   VAL A   1       5.968   3.575  34.109  0.00  0.00    -0.239 NA
ATOM      6  H   VAL A   1       5.442   3.837  34.967  0.00  0.00    +0.142 HD
ENDBRANCH   1   5
BRANCH   1   7
ATOM      7  C   VAL A   1       6.598   5.801  33.489  0.00  0.00    +0.224 C 
ATOM      8  O   VAL A   1       6.506   6.127  34.682  0.00  0.00    -0.287 OA
ENDBRANCH   1   7
TORSDOF 3
REMARK  Name = ../refined-set-2016/2jkh/2jkh_pocket.pdb
REMARK  225 active torsions:
REMARK  status: ('A' for Active; 'I' for Inactive)
REMARK    1  A    between atoms: _1  and  _5
REMARK    2  A    between atoms: _5  and  _6
REMARK    3  A    between atoms: _5  and  _8
REMARK    4  A    between atoms: _8  and  _9
REMARK    5  A    between atoms: _12  and  _14
REMARK    6  A    between atoms: _14  and  _15
REMARK    7  A    between atoms: _14  and  _17
REMARK    8  A    between atoms: _20  and  _22
REMARK    9  A    between atoms: _22  and  _23
REMARK   10  A    between atoms: _22  and  _25
REMARK   11  A    between atoms: _25  and  _26
REMARK   12  A    between atoms: _32  and  _34
REMARK   13  A    between atoms: _34  and  _35
REMARK   14  A    between atoms: _34  and  _37
REMARK   15  A    between atoms: _37  and  _38
REMARK   16  A    between atoms: _43  and  _45
REMARK   17  A    between atoms: _45  and  _46
REMARK   18  A    between atoms: _45  and  _48
REMARK   19  A    between atoms: _48  and  _49
REMARK   20  A    between atoms: _49  and  _50
REMARK   21  A    between atoms: _55  and  _57
REMARK   22  A    between atoms: _57  and  _58
REMARK   23  A    between atoms: _57  and  _60
REMARK   24  A    between atoms: _60  and  _61
REMARK   25  A    between atoms: _67  and  _69
REMARK   26  A    between atoms: _69  and  _70
REMARK   27  A    between atoms: _69  and  _72
REMARK   28  A    between atoms: _72  and  _73
REMARK   29  A    between atoms: _76  and  _78
REMARK   30  A    between atoms: _78  and  _79
REMARK   31  A    between atoms: _78  and  _81
REMARK   32  A    between atoms: _81  and  _82
REMARK   33  A    between atoms: _82  and  _83
REMARK   34  A    between atoms: _83  and  _84
REMARK   35  A    between atoms: _84  and  _85
REMARK   36  A    between atoms: _89  and  _91
REMARK   37  A    between atoms: _91  and  _92
REMARK   38  A    between atoms: _91  and  _94
REMARK   39  A    between atoms: _94  and  _95
REMARK   40  A    between atoms: _95  and  _96
REMARK   41  A    between atoms: _99  and  _101
REMARK   42  A    between atoms: _101  and  _102
REMARK   43  A    between atoms: _101  and  _104
REMARK   44  A    between atoms: _104  and  _105
REMARK   45  A    between atoms: _108  and  _110
REMARK   46  A    between atoms: _110  and  _111
REMARK   47  A    between atoms: _110  and  _113
REMARK   48  A    between atoms: _113  and  _114
REMARK   49  A    between atoms: _119  and  _120
REMARK   50  A    between atoms: _122  and  _124
REMARK   51  A    between atoms: _124  and  _125
REMARK   52  A    between atoms: _124  and  _127
REMARK   53  A    between atoms: _127  and  _128
REMARK   54  A    between atoms: _131  and  _133
REMARK   55  A    between atoms: _133  and  _134
REMARK   56  A    between atoms: _133  and  _136
REMARK   57  A    between atoms: _136  and  _137
REMARK   58  A    between atoms: _140  and  _142
REMARK   59  A    between atoms: _142  and  _143
REMARK   60  A    between atoms: _142  and  _145
REMARK   61  A    between atoms: _148  and  _150
REMARK   62  A    between atoms: _150  and  _151
REMARK   63  A    between atoms: _150  and  _153
REMARK   64  A    between atoms: _153  and  _154
REMARK   65  A    between atoms: _154  and  _155
REMARK   66  A    between atoms: _155  and  _156
REMARK   67  A    between atoms: _165  and  _167
REMARK   68  A    between atoms: _167  and  _168
REMARK   69  A    between atoms: _167  and  _170
REMARK   70  A    between atoms: _170  and  _171
REMARK   71  A    between atoms: _176  and  _178
REMARK   72  A    between atoms: _178  and  _179
REMARK   73  A    between atoms: _178  and  _181
REMARK   74  A    between atoms: _181  and  _182
REMARK   75  A    between atoms: _182  and  _183
REMARK   76  A    between atoms: _186  and  _188
REMARK   77  A    between atoms: _188  and  _189
REMARK   78  A    between atoms: _188  and  _191
REMARK   79  A    between atoms: _191  and  _192
REMARK   80  A    between atoms: _192  and  _193
REMARK   81  A    between atoms: _193  and  _194
REMARK   82  A    between atoms: _194  and  _195
REMARK   83  A    between atoms: _199  and  _201
REMARK   84  A    between atoms: _201  and  _202
REMARK   85  A    between atoms: _204  and  _206
REMARK   86  A    between atoms: _206  and  _207
REMARK   87  A    between atoms: _206  and  _209
REMARK   88  A    between atoms: _212  and  _214
REMARK   89  A    between atoms: _214  and  _215
REMARK   90  A    between atoms: _214  and  _217
REMARK   91  A    between atoms: _217  and  _218
REMARK   92  A    between atoms: _220  and  _222
REMARK   93  A    between atoms: _222  and  _223
REMARK   94  A    between atoms: _222  and  _225
REMARK   95  A    between atoms: _225  and  _226
REMARK   96  A    between atoms: _228  and  _230
REMARK   97  A    between atoms: _230  and  _231
REMARK   98  A    between atoms: _230  and  _233
REMARK   99  A    between atoms: _233  and  _234
REMARK  100  A    between atoms: _240  and  _242
REMARK  101  A    between atoms: _242  and  _243
REMARK  102  A    between atoms: _242  and  _245
REMARK  103  A    between atoms: _245  and  _246
REMARK  104  A    between atoms: _249  and  _251
REMARK  105  A    between atoms: _251  and  _252
REMARK  106  A    between atoms: _251  and  _254
REMARK  107  A    between atoms: _254  and  _255
REMARK  108  A    between atoms: _258  and  _260
REMARK  109  A    between atoms: _260  and  _261
REMARK  110  A    between atoms: _260  and  _263
REMARK  111  A    between atoms: _263  and  _264
REMARK  112  A    between atoms: _264  and  _265
REMARK  113  A    between atoms: _267  and  _269
REMARK  114  A    between atoms: _269  and  _270
REMARK  115  A    between atoms: _269  and  _272
REMARK  116  A    between atoms: _272  and  _273
REMARK  117  A    between atoms: _279  and  _281
REMARK  118  A    between atoms: _281  and  _282
REMARK  119  A    between atoms: _281  and  _284
REMARK  120  A    between atoms: _286  and  _288
REMARK  121  A    between atoms: _288  and  _289
REMARK  122  A    between atoms: _292  and  _294
REMARK  123  A    between atoms: _294  and  _295
REMARK  124  A    between atoms: _297  and  _299
REMARK  125  A    between atoms: _299  and  _300
REMARK  126  A    between atoms: _299  and  _302
REMARK  127  A    between atoms: _302  and  _303
REMARK  128  A    between atoms: _303  and  _304
REMARK  129  A    between atoms: _307  and  _309
REMARK  130  A    between atoms: _309  and  _310
REMARK  131  A    between atoms: _309  and  _312
REMARK  132  A    between atoms: _312  and  _313
REMARK  133  A    between atoms: _316  and  _318
REMARK  134  A    between atoms: _318  and  _319
REMARK  135  A    between atoms: _322  and  _324
REMARK  136  A    between atoms: _324  and  _325
REMARK  137  A    between atoms: _324  and  _327
REMARK  138  A    between atoms: _327  and  _328
REMARK  139  A    between atoms: _328  and  _451
REMARK  140  A    between atoms: _329  and  _331
REMARK  141  A    between atoms: _331  and  _332
REMARK  142  A    between atoms: _331  and  _334
REMARK  143  A    between atoms: _334  and  _335
REMARK  144  A    between atoms: _335  and  _336
REMARK  145  A    between atoms: _341  and  _343
REMARK  146  A    between atoms: _343  and  _344
REMARK  147  A    between atoms: _346  and  _348
REMARK  148  A    between atoms: _348  and  _349
REMARK  149  A    between atoms: _348  and  _351
REMARK  150  A    between atoms: _351  and  _352
REMARK  151  A    between atoms: _355  and  _357
REMARK  152  A    between atoms: _357  and  _358
REMARK  153  A    between atoms: _357  and  _360
REMARK  154  A    between atoms: _360  and  _361
REMARK  155  A    between atoms: _363  and  _365
REMARK  156  A    between atoms: _365  and  _366
REMARK  157  A    between atoms: _368  and  _370
REMARK  158  A    between atoms: _370  and  _371
REMARK  159  A    between atoms: _373  and  _375
REMARK  160  A    between atoms: _375  and  _376
REMARK  161  A    between atoms: _375  and  _378
REMARK  162  A    between atoms: _378  and  _379
REMARK  163  A    between atoms: _384  and  _386
REMARK  164  A    between atoms: _386  and  _387
REMARK  165  A    between atoms: _386  and  _389
REMARK  166  A    between atoms: _389  and  _390
REMARK  167  A    between atoms: _393  and  _395
REMARK  168  A    between atoms: _395  and  _396
REMARK  169  A    between atoms: _395  and  _398
REMARK  170  A    between atoms: _401  and  _403
REMARK  171  A    between atoms: _403  and  _404
REMARK  172  A    between atoms: _403  and  _406
REMARK  173  A    between atoms: _406  and  _407
REMARK  174  A    between atoms: _409  and  _411
REMARK  175  A    between atoms: _411  and  _412
REMARK  176  A    between atoms: _411  and  _414
REMARK  177  A    between atoms: _414  and  _415
REMARK  178  A    between atoms: _425  and  _427
REMARK  179  A    between atoms: _427  and  _428
REMARK  180  A    between atoms: _430  and  _432
REMARK  181  A    between atoms: _432  and  _433
REMARK  182  A    between atoms: _432  and  _435
REMARK  183  A    between atoms: _435  and  _436
REMARK  184  A    between atoms: _436  and  _437
REMARK  185  A    between atoms: _440  and  _442
REMARK  186  A    between atoms: _442  and  _443
REMARK  187  A    between atoms: _445  and  _447
REMARK  188  A    between atoms: _447  and  _448
REMARK  189  A    between atoms: _447  and  _450
REMARK  190  A    between atoms: _450  and  _451
REMARK  191  A    between atoms: _452  and  _454
REMARK  192  A    between atoms: _454  and  _455
REMARK  193  A    between atoms: _458  and  _460
REMARK  194  A    between atoms: _460  and  _461
REMARK  195  A    between atoms: _460  and  _463
REMARK  196  A    between atoms: _463  and  _464
REMARK  197  A    between atoms: _464  and  _465
REMARK  198  A    between atoms: _465  and  _466
REMARK  199  A    between atoms: _475  and  _477
REMARK  200  A    between atoms: _477  and  _478
REMARK  201  A    between atoms: _477  and  _480
REMARK  202  A    between atoms: _480  and  _481
REMARK  203  A    between atoms: _481  and  _482
REMARK  204  A    between atoms: _482  and  _483
REMARK  205  A    between atoms: _483  and  _484
REMARK  206  A    between atoms: _488  and  _490
REMARK  207  A    between atoms: _490  and  _491
REMARK  208  A    between atoms: _490  and  _493
REMARK  209  A    between atoms: _493  and  _494
REMARK  210  A    between atoms: _499  and  _500
REMARK  211  A    between atoms: _502  and  _504
REMARK  212  A    between atoms: _504  and  _505
REMARK  213  A    between atoms: _507  and  _509
REMARK  214  A    between atoms: _509  and  _510
REMARK  215  A    between atoms: _509  and  _512
REMARK  216  A    between atoms: _512  and  _513
REMARK  217  A    between atoms: _516  and  _518
REMARK  218  A    between atoms: _518  and  _519
REMARK  219  A    between atoms: _518  and  _521
REMARK  220  A    between atoms: _521  and  _522
REMARK  221  A    between atoms: _527  and  _528
REMARK  222  A    between atoms: _530  and  _532
REMARK  223  A    between atoms: _532  and  _533
REMARK  224  A    between atoms: _532  and  _535
REMARK  225  A    between atoms: _535  and  _536
REMARK                            x       y       z     vdW  Elec       q    Type
REMARK                         _______ _______ _______ _____ _____    ______ ____
ROOT
ATOM      1  NE  ARG A   1      -1.106  18.562  27.348  0.00  0.00    -0.265 N 
ATOM      2  HE  ARG A   1      -0.167  18.911  27.068  0.00  0.00    +0.259 HD
ATOM      3  CZ  ARG A   1      -2.120  18.767  26.511  0.00  0.00    +0.342 C 
ATOM      4  NH2 ARG A   1      -3.343  18.337  26.812  0.00  0.00    -0.292 N 
ATOM      5 HH21 ARG A   1      -3.512  17.836  27.708  0.00  0.00    +0.255 HD
ATOM      6 HH22 ARG A   1      -4.129  18.502  26.152  0.00  0.00    +0.255 HD
ATOM      7  NH1 ARG A   1      -1.906  19.405  25.362  0.00  0.00    -0.292 N 
ATOM      8 HH11 ARG A   1      -0.951  19.740  25.123  0.00  0.00    +0.255 HD
ATOM      9 HH12 ARG A   1      -2.694  19.568  24.703  0.00  0.00    +0.255 HD
ENDROOT
BRANCH   1  10
ATOM     10  CD  ARG A   1      -1.224  17.879  28.634  0.00  0.00    +0.174 C 
BRANCH  10  11
ATOM     11  CG  ARG A   1       0.145  17.672  29.277  0.00  0.00    +0.045 C 
BRANCH  11  12
ATOM     12  CB  ARG A   1      -0.005  16.935  30.588  0.00  0.00    +0.029 C 
BRANCH  12  13
ATOM     13  CA  ARG A   1       1.298  16.766  31.369  0.00  0.00    +0.133 C 
BRANCH  13  14
ATOM     14  N   ARG A   1       2.265  16.026  30.553  0.00  0.00    -0.239 NA
ATOM     15  H   ARG A   1       2.001  15.735  29.590  0.00  0.00    +0.142 HD
ENDBRANCH  13  14
BRANCH  13  16
ATOM     16  C   ARG A   1       0.982  16.093  32.712  0.00  0.00    +0.224 C 
ATOM     17  O   ARG A   1       0.900  14.865  32.810  0.00  0.00    -0.287 OA
ENDBRANCH  13  16
ENDBRANCH  12  13
ENDBRANCH  11  12
ENDBRANCH  10  11
ENDBRANCH   1  10
TORSDOF 6
REMARK  Name = ../refined-set-2016/2jkh/2jkh_pocket.pdb
REMARK  225 active torsions:
REMARK  status: ('A' for Active; 'I' for Inactive)
REMARK    1  A    between atoms: _1  and  _5
REMARK    2  A    between atoms: _5  and  _6
REMARK    3  A    between atoms: _5  and  _8
REMARK    4  A    between atoms: _8  and  _9
REMARK    5  A    between atoms: _12  and  _14
REMARK    6  A    between atoms: _14  and  _15
REMARK    7  A    between atoms: _14  and  _17
REMARK    8  A    between atoms: _20  and  _22
REMARK    9  A    between atoms: _22  and  _23
REMARK   10  A    between atoms: _22  and  _25
REMARK   11  A    between atoms: _25  and  _26
REMARK   12  A    between atoms: _32  and  _34
REMARK   13  A    between atoms: _34  and  _35
REMARK   14  A    between atoms: _34  and  _37
REMARK   15  A    between atoms: _37  and  _38
REMARK   16  A    between atoms: _43  and  _45
REMARK   17  A    between atoms: _45  and  _46
REMARK   18  A    between atoms: _45  and  _48
REMARK   19  A    between atoms: _48  and  _49
REMARK   20  A    between atoms: _49  and  _50
REMARK   21  A    between atoms: _55  and  _57
REMARK   22  A    between atoms: _57  and  _58
REMARK   23  A    between atoms: _57  and  _60
REMARK   24  A    between atoms: _60  and  _61
REMARK   25  A    between atoms: _67  and  _69
REMARK   26  A    between atoms: _69  and  _70
REMARK   27  A    between atoms: _69  and  _72
REMARK   28  A    between atoms: _72  and  _73
REMARK   29  A    between atoms: _76  and  _78
REMARK   30  A    between atoms: _78  and  _79
REMARK   31  A    between atoms: _78  and  _81
REMARK   32  A    between atoms: _81  and  _82
REMARK   33  A    between atoms: _82  and  _83
REMARK   34  A    between atoms: _83  and  _84
REMARK   35  A    between atoms: _84  and  _85
REMARK   36  A    between atoms: _89  and  _91
REMARK   37  A    between atoms: _91  and  _92
REMARK   38  A    between atoms: _91  and  _94
REMARK   39  A    between atoms: _94  and  _95
REMARK   40  A    between atoms: _95  and  _96
REMARK   41  A    between atoms: _99  and  _101
REMARK   42  A    between atoms: _101  and  _102
REMARK   43  A    between atoms: _101  and  _104
REMARK   44  A    between atoms: _104  and  _105
REMARK   45  A    between atoms: _108  and  _110
REMARK   46  A    between atoms: _110  and  _111
REMARK   47  A    between atoms: _110  and  _113
REMARK   48  A    between atoms: _113  and  _114
REMARK   49  A    between atoms: _119  and  _120
REMARK   50  A    between atoms: _122  and  _124
REMARK   51  A    between atoms: _124  and  _125
REMARK   52  A    between atoms: _124  and  _127
REMARK   53  A    between atoms: _127  and  _128
REMARK   54  A    between atoms: _131  and  _133
REMARK   55  A    between atoms: _133  and  _134
REMARK   56  A    between atoms: _133  and  _136
REMARK   57  A    between atoms: _136  and  _137
REMARK   58  A    between atoms: _140  and  _142
REMARK   59  A    between atoms: _142  and  _143
REMARK   60  A    between atoms: _142  and  _145
REMARK   61  A    between atoms: _148  and  _150
REMARK   62  A    between atoms: _150  and  _151
REMARK   63  A    between atoms: _150  and  _153
REMARK   64  A    between atoms: _153  and  _154
REMARK   65  A    between atoms: _154  and  _155
REMARK   66  A    between atoms: _155  and  _156
REMARK   67  A    between atoms: _165  and  _167
REMARK   68  A    between atoms: _167  and  _168
REMARK   69  A    between atoms: _167  and  _170
REMARK   70  A    between atoms: _170  and  _171
REMARK   71  A    between atoms: _176  and  _178
REMARK   72  A    between atoms: _178  and  _179
REMARK   73  A    between atoms: _178  and  _181
REMARK   74  A    between atoms: _181  and  _182
REMARK   75  A    between atoms: _182  and  _183
REMARK   76  A    between atoms: _186  and  _188
REMARK   77  A    between atoms: _188  and  _189
REMARK   78  A    between atoms: _188  and  _191
REMARK   79  A    between atoms: _191  and  _192
REMARK   80  A    between atoms: _192  and  _193
REMARK   81  A    between atoms: _193  and  _194
REMARK   82  A    between atoms: _194  and  _195
REMARK   83  A    between atoms: _199  and  _201
REMARK   84  A    between atoms: _201  and  _202
REMARK   85  A    between atoms: _204  and  _206
REMARK   86  A    between atoms: _206  and  _207
REMARK   87  A    between atoms: _206  and  _209
REMARK   88  A    between atoms: _212  and  _214
REMARK   89  A    between atoms: _214  and  _215
REMARK   90  A    between atoms: _214  and  _217
REMARK   91  A    between atoms: _217  and  _218
REMARK   92  A    between atoms: _220  and  _222
REMARK   93  A    between atoms: _222  and  _223
REMARK   94  A    between atoms: _222  and  _225
REMARK   95  A    between atoms: _225  and  _226
REMARK   96  A    between atoms: _228  and  _230
REMARK   97  A    between atoms: _230  and  _231
REMARK   98  A    between atoms: _230  and  _233
REMARK   99  A    between atoms: _233  and  _234
REMARK  100  A    between atoms: _240  and  _242
REMARK  101  A    between atoms: _242  and  _243
REMARK  102  A    between atoms: _242  and  _245
REMARK  103  A    between atoms: _245  and  _246
REMARK  104  A    between atoms: _249  and  _251
REMARK  105  A    between atoms: _251  and  _252
REMARK  106  A    between atoms: _251  and  _254
REMARK  107  A    between atoms: _254  and  _255
REMARK  108  A    between atoms: _258  and  _260
REMARK  109  A    between atoms: _260  and  _261
REMARK  110  A    between atoms: _260  and  _263
REMARK  111  A    between atoms: _263  and  _264
REMARK  112  A    between atoms: _264  and  _265
REMARK  113  A    between atoms: _267  and  _269
REMARK  114  A    between atoms: _269  and  _270
REMARK  115  A    between atoms: _269  and  _272
REMARK  116  A    between atoms: _272  and  _273
REMARK  117  A    between atoms: _279  and  _281
REMARK  118  A    between atoms: _281  and  _282
REMARK  119  A    between atoms: _281  and  _284
REMARK  120  A    between atoms: _286  and  _288
REMARK  121  A    between atoms: _288  and  _289
REMARK  122  A    between atoms: _292  and  _294
REMARK  123  A    between atoms: _294  and  _295
REMARK  124  A    between atoms: _297  and  _299
REMARK  125  A    between atoms: _299  and  _300
REMARK  126  A    between atoms: _299  and  _302
REMARK  127  A    between atoms: _302  and  _303
REMARK  128  A    between atoms: _303  and  _304
REMARK  129  A    between atoms: _307  and  _309
REMARK  130  A    between atoms: _309  and  _310
REMARK  131  A    between atoms: _309  and  _312
REMARK  132  A    between atoms: _312  and  _313
REMARK  133  A    between atoms: _316  and  _318
REMARK  134  A    between atoms: _318  and  _319
REMARK  135  A    between atoms: _322  and  _324
REMARK  136  A    between atoms: _324  and  _325
REMARK  137  A    between atoms: _324  and  _327
REMARK  138  A    between atoms: _327  and  _328
REMARK  139  A    between atoms: _328  and  _451
REMARK  140  A    between atoms: _329  and  _331
REMARK  141  A    between atoms: _331  and  _332
REMARK  142  A    between atoms: _331  and  _334
REMARK  143  A    between atoms: _334  and  _335
REMARK  144  A    between atoms: _335  and  _336
REMARK  145  A    between atoms: _341  and  _343
REMARK  146  A    between atoms: _343  and  _344
REMARK  147  A    between atoms: _346  and  _348
REMARK  148  A    between atoms: _348  and  _349
REMARK  149  A    between atoms: _348  and  _351
REMARK  150  A    between atoms: _351  and  _352
REMARK  151  A    between atoms: _355  and  _357
REMARK  152  A    between atoms: _357  and  _358
REMARK  153  A    between atoms: _357  and  _360
REMARK  154  A    between atoms: _360  and  _361
REMARK  155  A    between atoms: _363  and  _365
REMARK  156  A    between atoms: _365  and  _366
REMARK  157  A    between atoms: _368  and  _370
REMARK  158  A    between atoms: _370  and  _371
REMARK  159  A    between atoms: _373  and  _375
REMARK  160  A    between atoms: _375  and  _376
REMARK  161  A    between atoms: _375  and  _378
REMARK  162  A    between atoms: _378  and  _379
REMARK  163  A    between atoms: _384  and  _386
REMARK  164  A    between atoms: _386  and  _387
REMARK  165  A    between atoms: _386  and  _389
REMARK  166  A    between atoms: _389  and  _390
REMARK  167  A    between atoms: _393  and  _395
REMARK  168  A    between atoms: _395  and  _396
REMARK  169  A    between atoms: _395  and  _398
REMARK  170  A    between atoms: _401  and  _403
REMARK  171  A    between atoms: _403  and  _404
REMARK  172  A    between atoms: _403  and  _406
REMARK  173  A    between atoms: _406  and  _407
REMARK  174  A    between atoms: _409  and  _411
REMARK  175  A    between atoms: _411  and  _412
REMARK  176  A    between atoms: _411  and  _414
REMARK  177  A    between atoms: _414  and  _415
REMARK  178  A    between atoms: _425  and  _427
REMARK  179  A    between atoms: _427  and  _428
REMARK  180  A    between atoms: _430  and  _432
REMARK  181  A    between atoms: _432  and  _433
REMARK  182  A    between atoms: _432  and  _435
REMARK  183  A    between atoms: _435  and  _436
REMARK  184  A    between atoms: _436  and  _437
REMARK  185  A    between atoms: _440  and  _442
REMARK  186  A    between atoms: _442  and  _443
REMARK  187  A    between atoms: _445  and  _447
REMARK  188  A    between atoms: _447  and  _448
REMARK  189  A    between atoms: _447  and  _450
REMARK  190  A    between atoms: _450  and  _451
REMARK  191  A    between atoms: _452  and  _454
REMARK  192  A    between atoms: _454  and  _455
REMARK  193  A    between atoms: _458  and  _460
REMARK  194  A    between atoms: _460  and  _461
REMARK  195  A    between atoms: _460  and  _463
REMARK  196  A    between atoms: _463  and  _464
REMARK  197  A    between atoms: _464  and  _465
REMARK  198  A    between atoms: _465  and  _466
REMARK  199  A    between atoms: _475  and  _477
REMARK  200  A    between atoms: _477  and  _478
REMARK  201  A    between atoms: _477  and  _480
REMARK  202  A    between atoms: _480  and  _481
REMARK  203  A    between atoms: _481  and  _482
REMARK  204  A    between atoms: _482  and  _483
REMARK  205  A    between atoms: _483  and  _484
REMARK  206  A    between atoms: _488  and  _490
REMARK  207  A    between atoms: _490  and  _491
REMARK  208  A    between atoms: _490  and  _493
REMARK  209  A    between atoms: _493  and  _494
REMARK  210  A    between atoms: _499  and  _500
REMARK  211  A    between atoms: _502  and  _504
REMARK  212  A    between atoms: _504  and  _505
REMARK  213  A    between atoms: _507  and  _509
REMARK  214  A    between atoms: _509  and  _510
REMARK  215  A    between atoms: _509  and  _512
REMARK  216  A    between atoms: _512  and  _513
REMARK  217  A    between atoms: _516  and  _518
REMARK  218  A    between atoms: _518  and  _519
REMARK  219  A    between atoms: _518  and  _521
REMARK  220  A    between atoms: _521  and  _522
REMARK  221  A    between atoms: _527  and  _528
REMARK  222  A    between atoms: _530  and  _532
REMARK  223  A    between atoms: _532  and  _533
REMARK  224  A    between atoms: _532  and  _535
REMARK  225  A    between atoms: _535  and  _536
REMARK                            x       y       z     vdW  Elec       q    Type
REMARK                         _______ _______ _______ _____ _____    ______ ____
ROOT
ATOM      1  C   GLU A   2      -5.092  17.461  30.409  0.00  0.00    +0.241 C 
ATOM      2  N   LYS A   3      -5.626  18.537  30.988  0.00  0.00    -0.297 N 
ATOM      3  H   LYS A   3      -6.059  18.447  31.929  0.00  0.00    +0.150 HD
ATOM      4  O   GLU A   2      -4.487  17.513  29.337  0.00  0.00    -0.273 OA
ENDROOT
BRANCH   1   5
ATOM      5  CA  GLU A   2      -5.228  16.114  31.145  0.00  0.00    +0.149 C 
BRANCH   5   7
ATOM      6  C   HIS A   1      -3.694  16.707  32.914  0.00  0.00    +0.239 C 
ATOM      7  N   GLU A   2      -4.829  16.136  32.538  0.00  0.00    -0.297 N 
ATOM      8  H   GLU A   2      -5.443  15.697  33.253  0.00  0.00    +0.150 HD
ATOM      9  O   HIS A   1      -2.982  17.343  32.123  0.00  0.00    -0.274 OA
BRANCH   6  10
ATOM     10  CA  HIS A   1      -3.264  16.495  34.372  0.00  0.00    +0.151 C 
BRANCH  10  11
ATOM     11  N   HIS A   1      -1.818  16.791  34.470  0.00  0.00    -0.238 NA
ATOM     12  H   HIS A   1      -1.405  17.428  33.759  0.00  0.00    +0.142 HD
ENDBRANCH  10  11
BRANCH  10  13
ATOM     13  CB  HIS A   1      -4.130  17.290  35.389  0.00  0.00    +0.074 C 
BRANCH  13  14
ATOM     14  CG  HIS A   1      -3.935  18.774  35.353  0.00  0.00    +0.082 A 
ATOM     15  CD2 HIS A   1      -2.935  19.547  35.830  0.00  0.00    +0.115 A 
ATOM     16  NE2 HIS A   1      -3.269  20.855  35.566  0.00  0.00    -0.221 NA
ATOM     17  CE1 HIS A   1      -4.439  20.885  34.956  0.00  0.00    +0.199 A 
ATOM     18  ND1 HIS A   1      -4.872  19.642  34.828  0.00  0.00    -0.227 NA
ENDBRANCH  13  14
ENDBRANCH  10  13
ENDBRANCH   6  10
ENDBRANCH   5   7
BRANCH   5  19
ATOM     19  CB  GLU A   2      -6.638  15.545  30.989  0.00  0.00    +0.041 C 
BRANCH  19  20
ATOM     20  CG  GLU A   2      -7.061  15.438  29.535  0.00  0.00    +0.116 C 
BRANCH  20  21
ATOM     21  CD  GLU A   2      -8.414  14.807  29.340  0.00  0.00    +0.365 C 
ATOM     22  OE2 GLU A   2      -8.751  13.823  30.032  0.00  0.00    -0.246 OA
ATOM     23  OE1 GLU A   2      -9.138  15.290  28.454  0.00  0.00    -0.246 OA
ENDBRANCH  20  21
ENDBRANCH  19  20
ENDBRANCH   5  19
ENDBRANCH   1   5
BRANCH   2  24
ATOM     24  CA  LYS A   3      -5.616  19.849  30.323  0.00  0.00    +0.149 C 
BRANCH  24  25
ATOM     25  C   LYS A   3      -4.504  20.737  30.878  0.00  0.00    +0.241 C 
ATOM     26  N   GLY A   4      -3.544  20.132  31.579  0.00  0.00    -0.296 N 
ATOM     27  H   GLY A   4      -3.566  19.096  31.663  0.00  0.00    +0.150 HD
ATOM     28  O   LYS A   3      -4.495  21.952  30.649  0.00  0.00    -0.273 OA
BRANCH  26  29
ATOM     29  CA  GLY A   4      -2.468  20.860  32.231  0.00  0.00    +0.163 C 
BRANCH  29  30
ATOM     30  C   GLY A   4      -1.241  21.065  31.367  0.00  0.00    +0.229 C 
ATOM     31  O   GLY A   4      -1.258  20.853  30.150  0.00  0.00    -0.286 OA
ENDBRANCH  29  30
ENDBRANCH  26  29
ENDBRANCH  24  25
BRANCH  24  32
ATOM     32  CB  LYS A   3      -6.987  20.551  30.437  0.00  0.00    +0.029 C 
BRANCH  32  33
ATOM     33  CG  LYS A   3      -8.164  19.680  30.040  0.00  0.00    +0.000 C 
BRANCH  33  34
ATOM     34  CD  LYS A   3      -9.500  20.439  30.120  0.00  0.00    -0.024 C 
BRANCH  34  35
ATOM     35  CE  LYS A   3     -10.023  20.563  31.547  0.00  0.00    -0.086 C 
BRANCH  35  36
ATOM     36  NZ  LYS A   3     -10.482  19.259  32.102  0.00  0.00    +0.380 N 
ATOM     37  HZ1 LYS A   3     -10.827  19.399  33.073  0.00  0.00    -0.089 HD
ATOM     38  HZ2 LYS A   3      -9.688  18.588  32.109  0.00  0.00    -0.089 HD
ATOM     39  HZ3 LYS A   3     -11.250  18.883  31.510  0.00  0.00    -0.089 HD
ENDBRANCH  35  36
ENDBRANCH  34  35
ENDBRANCH  33  34
ENDBRANCH  32  33
ENDBRANCH  24  32
ENDBRANCH   2  24
TORSDOF 18
REMARK  Name = ../refined-set-2016/2jkh/2jkh_pocket.pdb
REMARK  225 active torsions:
REMARK  status: ('A' for Active; 'I' for Inactive)
REMARK    1  A    between atoms: _1  and  _5
REMARK    2  A    between atoms: _5  and  _6
REMARK    3  A    between atoms: _5  and  _8
REMARK    4  A    between atoms: _8  and  _9
REMARK    5  A    between atoms: _12  and  _14
REMARK    6  A    between atoms: _14  and  _15
REMARK    7  A    between atoms: _14  and  _17
REMARK    8  A    between atoms: _20  and  _22
REMARK    9  A    between atoms: _22  and  _23
REMARK   10  A    between atoms: _22  and  _25
REMARK   11  A    between atoms: _25  and  _26
REMARK   12  A    between atoms: _32  and  _34
REMARK   13  A    between atoms: _34  and  _35
REMARK   14  A    between atoms: _34  and  _37
REMARK   15  A    between atoms: _37  and  _38
REMARK   16  A    between atoms: _43  and  _45
REMARK   17  A    between atoms: _45  and  _46
REMARK   18  A    between atoms: _45  and  _48
REMARK   19  A    between atoms: _48  and  _49
REMARK   20  A    between atoms: _49  and  _50
REMARK   21  A    between atoms: _55  and  _57
REMARK   22  A    between atoms: _57  and  _58
REMARK   23  A    between atoms: _57  and  _60
REMARK   24  A    between atoms: _60  and  _61
REMARK   25  A    between atoms: _67  and  _69
REMARK   26  A    between atoms: _69  and  _70
REMARK   27  A    between atoms: _69  and  _72
REMARK   28  A    between atoms: _72  and  _73
REMARK   29  A    between atoms: _76  and  _78
REMARK   30  A    between atoms: _78  and  _79
REMARK   31  A    between atoms: _78  and  _81
REMARK   32  A    between atoms: _81  and  _82
REMARK   33  A    between atoms: _82  and  _83
REMARK   34  A    between atoms: _83  and  _84
REMARK   35  A    between atoms: _84  and  _85
REMARK   36  A    between atoms: _89  and  _91
REMARK   37  A    between atoms: _91  and  _92
REMARK   38  A    between atoms: _91  and  _94
REMARK   39  A    between atoms: _94  and  _95
REMARK   40  A    between atoms: _95  and  _96
REMARK   41  A    between atoms: _99  and  _101
REMARK   42  A    between atoms: _101  and  _102
REMARK   43  A    between atoms: _101  and  _104
REMARK   44  A    between atoms: _104  and  _105
REMARK   45  A    between atoms: _108  and  _110
REMARK   46  A    between atoms: _110  and  _111
REMARK   47  A    between atoms: _110  and  _113
REMARK   48  A    between atoms: _113  and  _114
REMARK   49  A    between atoms: _119  and  _120
REMARK   50  A    between atoms: _122  and  _124
REMARK   51  A    between atoms: _124  and  _125
REMARK   52  A    between atoms: _124  and  _127
REMARK   53  A    between atoms: _127  and  _128
REMARK   54  A    between atoms: _131  and  _133
REMARK   55  A    between atoms: _133  and  _134
REMARK   56  A    between atoms: _133  and  _136
REMARK   57  A    between atoms: _136  and  _137
REMARK   58  A    between atoms: _140  and  _142
REMARK   59  A    between atoms: _142  and  _143
REMARK   60  A    between atoms: _142  and  _145
REMARK   61  A    between atoms: _148  and  _150
REMARK   62  A    between atoms: _150  and  _151
REMARK   63  A    between atoms: _150  and  _153
REMARK   64  A    between atoms: _153  and  _154
REMARK   65  A    between atoms: _154  and  _155
REMARK   66  A    between atoms: _155  and  _156
REMARK   67  A    between atoms: _165  and  _167
REMARK   68  A    between atoms: _167  and  _168
REMARK   69  A    between atoms: _167  and  _170
REMARK   70  A    between atoms: _170  and  _171
REMARK   71  A    between atoms: _176  and  _178
REMARK   72  A    between atoms: _178  and  _179
REMARK   73  A    between atoms: _178  and  _181
REMARK   74  A    between atoms: _181  and  _182
REMARK   75  A    between atoms: _182  and  _183
REMARK   76  A    between atoms: _186  and  _188
REMARK   77  A    between atoms: _188  and  _189
REMARK   78  A    between atoms: _188  and  _191
REMARK   79  A    between atoms: _191  and  _192
REMARK   80  A    between atoms: _192  and  _193
REMARK   81  A    between atoms: _193  and  _194
REMARK   82  A    between atoms: _194  and  _195
REMARK   83  A    between atoms: _199  and  _201
REMARK   84  A    between atoms: _201  and  _202
REMARK   85  A    between atoms: _204  and  _206
REMARK   86  A    between atoms: _206  and  _207
REMARK   87  A    between atoms: _206  and  _209
REMARK   88  A    between atoms: _212  and  _214
REMARK   89  A    between atoms: _214  and  _215
REMARK   90  A    between atoms: _214  and  _217
REMARK   91  A    between atoms: _217  and  _218
REMARK   92  A    between atoms: _220  and  _222
REMARK   93  A    between atoms: _222  and  _223
REMARK   94  A    between atoms: _222  and  _225
REMARK   95  A    between atoms: _225  and  _226
REMARK   96  A    between atoms: _228  and  _230
REMARK   97  A    between atoms: _230  and  _231
REMARK   98  A    between atoms: _230  and  _233
REMARK   99  A    between atoms: _233  and  _234
REMARK  100  A    between atoms: _240  and  _242
REMARK  101  A    between atoms: _242  and  _243
REMARK  102  A    between atoms: _242  and  _245
REMARK  103  A    between atoms: _245  and  _246
REMARK  104  A    between atoms: _249  and  _251
REMARK  105  A    between atoms: _251  and  _252
REMARK  106  A    between atoms: _251  and  _254
REMARK  107  A    between atoms: _254  and  _255
REMARK  108  A    between atoms: _258  and  _260
REMARK  109  A    between atoms: _260  and  _261
REMARK  110  A    between atoms: _260  and  _263
REMARK  111  A    between atoms: _263  and  _264
REMARK  112  A    between atoms: _264  and  _265
REMARK  113  A    between atoms: _267  and  _269
REMARK  114  A    between atoms: _269  and  _270
REMARK  115  A    between atoms: _269  and  _272
REMARK  116  A    between atoms: _272  and  _273
REMARK  117  A    between atoms: _279  and  _281
REMARK  118  A    between atoms: _281  and  _282
REMARK  119  A    between atoms: _281  and  _284
REMARK  120  A    between atoms: _286  and  _288
REMARK  121  A    between atoms: _288  and  _289
REMARK  122  A    between atoms: _292  and  _294
REMARK  123  A    between atoms: _294  and  _295
REMARK  124  A    between atoms: _297  and  _299
REMARK  125  A    between atoms: _299  and  _300
REMARK  126  A    between atoms: _299  and  _302
REMARK  127  A    between atoms: _302  and  _303
REMARK  128  A    between atoms: _303  and  _304
REMARK  129  A    between atoms: _307  and  _309
REMARK  130  A    between atoms: _309  and  _310
REMARK  131  A    between atoms: _309  and  _312
REMARK  132  A    between atoms: _312  and  _313
REMARK  133  A    between atoms: _316  and  _318
REMARK  134  A    between atoms: _318  and  _319
REMARK  135  A    between atoms: _322  and  _324
REMARK  136  A    between atoms: _324  and  _325
REMARK  137  A    between atoms: _324  and  _327
REMARK  138  A    between atoms: _327  and  _328
REMARK  139  A    between atoms: _328  and  _451
REMARK  140  A    between atoms: _329  and  _331
REMARK  141  A    between atoms: _331  and  _332
REMARK  142  A    between atoms: _331  and  _334
REMARK  143  A    between atoms: _334  and  _335
REMARK  144  A    between atoms: _335  and  _336
REMARK  145  A    between atoms: _341  and  _343
REMARK  146  A    between atoms: _343  and  _344
REMARK  147  A    between atoms: _346  and  _348
REMARK  148  A    between atoms: _348  and  _349
REMARK  149  A    between atoms: _348  and  _351
REMARK  150  A    between atoms: _351  and  _352
REMARK  151  A    between atoms: _355  and  _357
REMARK  152  A    between atoms: _357  and  _358
REMARK  153  A    between atoms: _357  and  _360
REMARK  154  A    between atoms: _360  and  _361
REMARK  155  A    between atoms: _363  and  _365
REMARK  156  A    between atoms: _365  and  _366
REMARK  157  A    between atoms: _368  and  _370
REMARK  158  A    between atoms: _370  and  _371
REMARK  159  A    between atoms: _373  and  _375
REMARK  160  A    between atoms: _375  and  _376
REMARK  161  A    between atoms: _375  and  _378
REMARK  162  A    between atoms: _378  and  _379
REMARK  163  A    between atoms: _384  and  _386
REMARK  164  A    between atoms: _386  and  _387
REMARK  165  A    between atoms: _386  and  _389
REMARK  166  A    between atoms: _389  and  _390
REMARK  167  A    between atoms: _393  and  _395
REMARK  168  A    between atoms: _395  and  _396
REMARK  169  A    between atoms: _395  and  _398
REMARK  170  A    between atoms: _401  and  _403
REMARK  171  A    between atoms: _403  and  _404
REMARK  172  A    between atoms: _403  and  _406
REMARK  173  A    between atoms: _406  and  _407
REMARK  174  A    between atoms: _409  and  _411
REMARK  175  A    between atoms: _411  and  _412
REMARK  176  A    between atoms: _411  and  _414
REMARK  177  A    between atoms: _414  and  _415
REMARK  178  A    between atoms: _425  and  _427
REMARK  179  A    between atoms: _427  and  _428
REMARK  180  A    between atoms: _430  and  _432
REMARK  181  A    between atoms: _432  and  _433
REMARK  182  A    between atoms: _432  and  _435
REMARK  183  A    between atoms: _435  and  _436
REMARK  184  A    between atoms: _436  and  _437
REMARK  185  A    between atoms: _440  and  _442
REMARK  186  A    between atoms: _442  and  _443
REMARK  187  A    between atoms: _445  and  _447
REMARK  188  A    between atoms: _447  and  _448
REMARK  189  A    between atoms: _447  and  _450
REMARK  190  A    between atoms: _450  and  _451
REMARK  191  A    between atoms: _452  and  _454
REMARK  192  A    between atoms: _454  and  _455
REMARK  193  A    between atoms: _458  and  _460
REMARK  194  A    between atoms: _460  and  _461
REMARK  195  A    between atoms: _460  and  _463
REMARK  196  A    between atoms: _463  and  _464
REMARK  197  A    between atoms: _464  and  _465
REMARK  198  A    between atoms: _465  and  _466
REMARK  199  A    between atoms: _475  and  _477
REMARK  200  A    between atoms: _477  and  _478
REMARK  201  A    between atoms: _477  and  _480
REMARK  202  A    between atoms: _480  and  _481
REMARK  203  A    between atoms: _481  and  _482
REMARK  204  A    between atoms: _482  and  _483
REMARK  205  A    between atoms: _483  and  _484
REMARK  206  A    between atoms: _488  and  _490
REMARK  207  A    between atoms: _490  and  _491
REMARK  208  A    between atoms: _490  and  _493
REMARK  209  A    between atoms: _493  and  _494
REMARK  210  A    between atoms: _499  and  _500
REMARK  211  A    between atoms: _502  and  _504
REMARK  212  A    between atoms: _504  and  _505
REMARK  213  A    between atoms: _507  and  _509
REMARK  214  A    between atoms: _509  and  _510
REMARK  215  A    between atoms: _509  and  _512
REMARK  216  A    between atoms: _512  and  _513
REMARK  217  A    between atoms: _516  and  _518
REMARK  218  A    between atoms: _518  and  _519
REMARK  219  A    between atoms: _518  and  _521
REMARK  220  A    between atoms: _521  and  _522
REMARK  221  A    between atoms: _527  and  _528
REMARK  222  A    between atoms: _530  and  _532
REMARK  223  A    between atoms: _532  and  _533
REMARK  224  A    between atoms: _532  and  _535
REMARK  225  A    between atoms: _535  and  _536
REMARK                            x       y       z     vdW  Elec       q    Type
REMARK                         _______ _______ _______ _____ _____    ______ ____
ROOT
ATOM      1  CA  VAL A   1       0.814   1.172  36.387  0.00  0.00    +0.133 C 
ENDROOT
BRANCH   1   2
ATOM      2  CB  VAL A   1       0.738   1.799  34.981  0.00  0.00    +0.023 C 
ATOM      3  CG2 VAL A   1       0.572   3.319  35.062  0.00  0.00    +0.002 C 
ATOM      4  CG1 VAL A   1       1.972   1.490  34.123  0.00  0.00    +0.002 C 
ENDBRANCH   1   2
BRANCH   1   5
ATOM      5  N   VAL A   1       2.098   1.405  37.038  0.00  0.00    -0.239 NA
ATOM      6  H   VAL A   1       2.949   0.941  36.660  0.00  0.00    +0.142 HD
ENDBRANCH   1   5
BRANCH   1   7
ATOM      7  C   VAL A   1       0.504  -0.313  36.307  0.00  0.00    +0.224 C 
ATOM      8  O   VAL A   1       1.316  -1.108  35.812  0.00  0.00    -0.287 OA
ENDBRANCH   1   7
TORSDOF 3
REMARK  Name = ../refined-set-2016/2jkh/2jkh_pocket.pdb
REMARK  225 active torsions:
REMARK  status: ('A' for Active; 'I' for Inactive)
REMARK    1  A    between atoms: _1  and  _5
REMARK    2  A    between atoms: _5  and  _6
REMARK    3  A    between atoms: _5  and  _8
REMARK    4  A    between atoms: _8  and  _9
REMARK    5  A    between atoms: _12  and  _14
REMARK    6  A    between atoms: _14  and  _15
REMARK    7  A    between atoms: _14  and  _17
REMARK    8  A    between atoms: _20  and  _22
REMARK    9  A    between atoms: _22  and  _23
REMARK   10  A    between atoms: _22  and  _25
REMARK   11  A    between atoms: _25  and  _26
REMARK   12  A    between atoms: _32  and  _34
REMARK   13  A    between atoms: _34  and  _35
REMARK   14  A    between atoms: _34  and  _37
REMARK   15  A    between atoms: _37  and  _38
REMARK   16  A    between atoms: _43  and  _45
REMARK   17  A    between atoms: _45  and  _46
REMARK   18  A    between atoms: _45  and  _48
REMARK   19  A    between atoms: _48  and  _49
REMARK   20  A    between atoms: _49  and  _50
REMARK   21  A    between atoms: _55  and  _57
REMARK   22  A    between atoms: _57  and  _58
REMARK   23  A    between atoms: _57  and  _60
REMARK   24  A    between atoms: _60  and  _61
REMARK   25  A    between atoms: _67  and  _69
REMARK   26  A    between atoms: _69  and  _70
REMARK   27  A    between atoms: _69  and  _72
REMARK   28  A    between atoms: _72  and  _73
REMARK   29  A    between atoms: _76  and  _78
REMARK   30  A    between atoms: _78  and  _79
REMARK   31  A    between atoms: _78  and  _81
REMARK   32  A    between atoms: _81  and  _82
REMARK   33  A    between atoms: _82  and  _83
REMARK   34  A    between atoms: _83  and  _84
REMARK   35  A    between atoms: _84  and  _85
REMARK   36  A    between atoms: _89  and  _91
REMARK   37  A    between atoms: _91  and  _92
REMARK   38  A    between atoms: _91  and  _94
REMARK   39  A    between atoms: _94  and  _95
REMARK   40  A    between atoms: _95  and  _96
REMARK   41  A    between atoms: _99  and  _101
REMARK   42  A    between atoms: _101  and  _102
REMARK   43  A    between atoms: _101  and  _104
REMARK   44  A    between atoms: _104  and  _105
REMARK   45  A    between atoms: _108  and  _110
REMARK   46  A    between atoms: _110  and  _111
REMARK   47  A    between atoms: _110  and  _113
REMARK   48  A    between atoms: _113  and  _114
REMARK   49  A    between atoms: _119  and  _120
REMARK   50  A    between atoms: _122  and  _124
REMARK   51  A    between atoms: _124  and  _125
REMARK   52  A    between atoms: _124  and  _127
REMARK   53  A    between atoms: _127  and  _128
REMARK   54  A    between atoms: _131  and  _133
REMARK   55  A    between atoms: _133  and  _134
REMARK   56  A    between atoms: _133  and  _136
REMARK   57  A    between atoms: _136  and  _137
REMARK   58  A    between atoms: _140  and  _142
REMARK   59  A    between atoms: _142  and  _143
REMARK   60  A    between atoms: _142  and  _145
REMARK   61  A    between atoms: _148  and  _150
REMARK   62  A    between atoms: _150  and  _151
REMARK   63  A    between atoms: _150  and  _153
REMARK   64  A    between atoms: _153  and  _154
REMARK   65  A    between atoms: _154  and  _155
REMARK   66  A    between atoms: _155  and  _156
REMARK   67  A    between atoms: _165  and  _167
REMARK   68  A    between atoms: _167  and  _168
REMARK   69  A    between atoms: _167  and  _170
REMARK   70  A    between atoms: _170  and  _171
REMARK   71  A    between atoms: _176  and  _178
REMARK   72  A    between atoms: _178  and  _179
REMARK   73  A    between atoms: _178  and  _181
REMARK   74  A    between atoms: _181  and  _182
REMARK   75  A    between atoms: _182  and  _183
REMARK   76  A    between atoms: _186  and  _188
REMARK   77  A    between atoms: _188  and  _189
REMARK   78  A    between atoms: _188  and  _191
REMARK   79  A    between atoms: _191  and  _192
REMARK   80  A    between atoms: _192  and  _193
REMARK   81  A    between atoms: _193  and  _194
REMARK   82  A    between atoms: _194  and  _195
REMARK   83  A    between atoms: _199  and  _201
REMARK   84  A    between atoms: _201  and  _202
REMARK   85  A    between atoms: _204  and  _206
REMARK   86  A    between atoms: _206  and  _207
REMARK   87  A    between atoms: _206  and  _209
REMARK   88  A    between atoms: _212  and  _214
REMARK   89  A    between atoms: _214  and  _215
REMARK   90  A    between atoms: _214  and  _217
REMARK   91  A    between atoms: _217  and  _218
REMARK   92  A    between atoms: _220  and  _222
REMARK   93  A    between atoms: _222  and  _223
REMARK   94  A    between atoms: _222  and  _225
REMARK   95  A    between atoms: _225  and  _226
REMARK   96  A    between atoms: _228  and  _230
REMARK   97  A    between atoms: _230  and  _231
REMARK   98  A    between atoms: _230  and  _233
REMARK   99  A    between atoms: _233  and  _234
REMARK  100  A    between atoms: _240  and  _242
REMARK  101  A    between atoms: _242  and  _243
REMARK  102  A    between atoms: _242  and  _245
REMARK  103  A    between atoms: _245  and  _246
REMARK  104  A    between atoms: _249  and  _251
REMARK  105  A    between atoms: _251  and  _252
REMARK  106  A    between atoms: _251  and  _254
REMARK  107  A    between atoms: _254  and  _255
REMARK  108  A    between atoms: _258  and  _260
REMARK  109  A    between atoms: _260  and  _261
REMARK  110  A    between atoms: _260  and  _263
REMARK  111  A    between atoms: _263  and  _264
REMARK  112  A    between atoms: _264  and  _265
REMARK  113  A    between atoms: _267  and  _269
REMARK  114  A    between atoms: _269  and  _270
REMARK  115  A    between atoms: _269  and  _272
REMARK  116  A    between atoms: _272  and  _273
REMARK  117  A    between atoms: _279  and  _281
REMARK  118  A    between atoms: _281  and  _282
REMARK  119  A    between atoms: _281  and  _284
REMARK  120  A    between atoms: _286  and  _288
REMARK  121  A    between atoms: _288  and  _289
REMARK  122  A    between atoms: _292  and  _294
REMARK  123  A    between atoms: _294  and  _295
REMARK  124  A    between atoms: _297  and  _299
REMARK  125  A    between atoms: _299  and  _300
REMARK  126  A    between atoms: _299  and  _302
REMARK  127  A    between atoms: _302  and  _303
REMARK  128  A    between atoms: _303  and  _304
REMARK  129  A    between atoms: _307  and  _309
REMARK  130  A    between atoms: _309  and  _310
REMARK  131  A    between atoms: _309  and  _312
REMARK  132  A    between atoms: _312  and  _313
REMARK  133  A    between atoms: _316  and  _318
REMARK  134  A    between atoms: _318  and  _319
REMARK  135  A    between atoms: _322  and  _324
REMARK  136  A    between atoms: _324  and  _325
REMARK  137  A    between atoms: _324  and  _327
REMARK  138  A    between atoms: _327  and  _328
REMARK  139  A    between atoms: _328  and  _451
REMARK  140  A    between atoms: _329  and  _331
REMARK  141  A    between atoms: _331  and  _332
REMARK  142  A    between atoms: _331  and  _334
REMARK  143  A    between atoms: _334  and  _335
REMARK  144  A    between atoms: _335  and  _336
REMARK  145  A    between atoms: _341  and  _343
REMARK  146  A    between atoms: _343  and  _344
REMARK  147  A    between atoms: _346  and  _348
REMARK  148  A    between atoms: _348  and  _349
REMARK  149  A    between atoms: _348  and  _351
REMARK  150  A    between atoms: _351  and  _352
REMARK  151  A    between atoms: _355  and  _357
REMARK  152  A    between atoms: _357  and  _358
REMARK  153  A    between atoms: _357  and  _360
REMARK  154  A    between atoms: _360  and  _361
REMARK  155  A    between atoms: _363  and  _365
REMARK  156  A    between atoms: _365  and  _366
REMARK  157  A    between atoms: _368  and  _370
REMARK  158  A    between atoms: _370  and  _371
REMARK  159  A    between atoms: _373  and  _375
REMARK  160  A    between atoms: _375  and  _376
REMARK  161  A    between atoms: _375  and  _378
REMARK  162  A    between atoms: _378  and  _379
REMARK  163  A    between atoms: _384  and  _386
REMARK  164  A    between atoms: _386  and  _387
REMARK  165  A    between atoms: _386  and  _389
REMARK  166  A    between atoms: _389  and  _390
REMARK  167  A    between atoms: _393  and  _395
REMARK  168  A    between atoms: _395  and  _396
REMARK  169  A    between atoms: _395  and  _398
REMARK  170  A    between atoms: _401  and  _403
REMARK  171  A    between atoms: _403  and  _404
REMARK  172  A    between atoms: _403  and  _406
REMARK  173  A    between atoms: _406  and  _407
REMARK  174  A    between atoms: _409  and  _411
REMARK  175  A    between atoms: _411  and  _412
REMARK  176  A    between atoms: _411  and  _414
REMARK  177  A    between atoms: _414  and  _415
REMARK  178  A    between atoms: _425  and  _427
REMARK  179  A    between atoms: _427  and  _428
REMARK  180  A    between atoms: _430  and  _432
REMARK  181  A    between atoms: _432  and  _433
REMARK  182  A    between atoms: _432  and  _435
REMARK  183  A    between atoms: _435  and  _436
REMARK  184  A    between atoms: _436  and  _437
REMARK  185  A    between atoms: _440  and  _442
REMARK  186  A    between atoms: _442  and  _443
REMARK  187  A    between atoms: _445  and  _447
REMARK  188  A    between atoms: _447  and  _448
REMARK  189  A    between atoms: _447  and  _450
REMARK  190  A    between atoms: _450  and  _451
REMARK  191  A    between atoms: _452  and  _454
REMARK  192  A    between atoms: _454  and  _455
REMARK  193  A    between atoms: _458  and  _460
REMARK  194  A    between atoms: _460  and  _461
REMARK  195  A    between atoms: _460  and  _463
REMARK  196  A    between atoms: _463  and  _464
REMARK  197  A    between atoms: _464  and  _465
REMARK  198  A    between atoms: _465  and  _466
REMARK  199  A    between atoms: _475  and  _477
REMARK  200  A    between atoms: _477  and  _478
REMARK  201  A    between atoms: _477  and  _480
REMARK  202  A    between atoms: _480  and  _481
REMARK  203  A    between atoms: _481  and  _482
REMARK  204  A    between atoms: _482  and  _483
REMARK  205  A    between atoms: _483  and  _484
REMARK  206  A    between atoms: _488  and  _490
REMARK  207  A    between atoms: _490  and  _491
REMARK  208  A    between atoms: _490  and  _493
REMARK  209  A    between atoms: _493  and  _494
REMARK  210  A    between atoms: _499  and  _500
REMARK  211  A    between atoms: _502  and  _504
REMARK  212  A    between atoms: _504  and  _505
REMARK  213  A    between atoms: _507  and  _509
REMARK  214  A    between atoms: _509  and  _510
REMARK  215  A    between atoms: _509  and  _512
REMARK  216  A    between atoms: _512  and  _513
REMARK  217  A    between atoms: _516  and  _518
REMARK  218  A    between atoms: _518  and  _519
REMARK  219  A    between atoms: _518  and  _521
REMARK  220  A    between atoms: _521  and  _522
REMARK  221  A    between atoms: _527  and  _528
REMARK  222  A    between atoms: _530  and  _532
REMARK  223  A    between atoms: _532  and  _533
REMARK  224  A    between atoms: _532  and  _535
REMARK  225  A    between atoms: _535  and  _536
REMARK                            x       y       z     vdW  Elec       q    Type
REMARK                         _______ _______ _______ _____ _____    ______ ____
ROOT
ATOM      1  CA  PHE A   3     -11.000   2.731  19.471  0.00  0.00    +0.153 C 
ENDROOT
BRANCH   1   2
ATOM      2  C   PHE A   3     -10.470   1.311  19.525  0.00  0.00    +0.241 C 
ATOM      3  O   PHE A   3     -10.341   0.733  20.600  0.00  0.00    -0.273 OA
ATOM      4  N   ILE A   4     -10.152   0.732  18.371  0.00  0.00    -0.297 N 
ATOM      5  H   ILE A   4     -10.275   1.254  17.480  0.00  0.00    +0.150 HD
BRANCH   4   6
ATOM      6  CA  ILE A   4      -9.634  -0.626  18.347  0.00  0.00    +0.149 C 
BRANCH   6   7
ATOM      7  C   ILE A   4      -8.326  -0.763  19.145  0.00  0.00    +0.241 C 
ATOM      8  N   ILE A   5      -8.262  -1.857  19.886  0.00  0.00    -0.298 N 
ATOM      9  H   ILE A   5      -9.113  -2.450  19.960  0.00  0.00    +0.150 HD
ATOM     10  O   ILE A   4      -7.430   0.098  19.077  0.00  0.00    -0.273 OA
BRANCH   8  11
ATOM     11  CA  ILE A   5      -7.062  -2.278  20.606  0.00  0.00    +0.137 C 
BRANCH  11  12
ATOM     12  C   ILE A   5      -6.542  -3.496  19.858  0.00  0.00    +0.227 C 
ATOM     13  O   ILE A   5      -7.143  -4.578  19.907  0.00  0.00    -0.286 OA
ENDBRANCH  11  12
BRANCH  11  14
ATOM     14  CB  ILE A   5      -7.365  -2.657  22.077  0.00  0.00    +0.026 C 
ATOM     15  CG2 ILE A   5      -6.078  -3.095  22.805  0.00  0.00    +0.002 C 
BRANCH  14  16
ATOM     16  CG1 ILE A   5      -8.068  -1.512  22.820  0.00  0.00    +0.002 C 
ATOM     17  CD1 ILE A   5      -7.352  -0.185  22.743  0.00  0.00    +0.000 C 
ENDBRANCH  14  16
ENDBRANCH  11  14
ENDBRANCH   8  11
ENDBRANCH   6   7
BRANCH   6  18
ATOM     18  CB  ILE A   4      -9.448  -1.162  16.904  0.00  0.00    +0.027 C 
ATOM     19  CG2 ILE A   4      -8.427  -0.325  16.135  0.00  0.00    +0.002 C 
BRANCH  18  20
ATOM     20  CG1 ILE A   4      -9.058  -2.642  16.919  0.00  0.00    +0.002 C 
ATOM     21  CD1 ILE A   4      -9.133  -3.331  15.551  0.00  0.00    +0.000 C 
ENDBRANCH  18  20
ENDBRANCH   6  18
ENDBRANCH   4   6
ENDBRANCH   1   2
BRANCH   1  23
ATOM     22  C   SER A   2     -13.096   3.412  20.529  0.00  0.00    +0.243 C 
ATOM     23  N   PHE A   3     -11.842   2.973  20.634  0.00  0.00    -0.297 N 
ATOM     24  H   PHE A   3     -11.451   2.797  21.581  0.00  0.00    +0.150 HD
ATOM     25  O   SER A   2     -13.671   3.556  19.447  0.00  0.00    -0.273 OA
BRANCH  22  26
ATOM     26  CA  SER A   2     -13.798   3.754  21.834  0.00  0.00    +0.178 C 
BRANCH  26  28
ATOM     27  C   SER A   1     -12.992   2.003  23.365  0.00  0.00    +0.241 C 
ATOM     28  N   SER A   2     -13.027   3.279  22.991  0.00  0.00    -0.295 N 
ATOM     29  H   SER A   2     -12.483   3.973  23.543  0.00  0.00    +0.150 HD
ATOM     30  O   SER A   1     -13.656   1.115  22.825  0.00  0.00    -0.274 OA
BRANCH  27  31
ATOM     31  CA  SER A   1     -12.017   1.657  24.494  0.00  0.00    +0.174 C 
BRANCH  31  32
ATOM     32  N   SER A   1     -12.540   0.762  25.517  0.00  0.00    -0.236 NA
ATOM     33  H   SER A   1     -12.547  -0.265  25.352  0.00  0.00    +0.142 HD
ENDBRANCH  31  32
BRANCH  31  34
ATOM     34  CB  SER A   1     -10.758   1.038  23.891  0.00  0.00    +0.163 C 
BRANCH  34  35
ATOM     35  OG  SER A   1     -10.140   1.919  22.974  0.00  0.00    -0.380 OA
ATOM     36  H   SER A   1      -9.888   2.755  23.440  0.00  0.00    +0.211 HD
ENDBRANCH  34  35
ENDBRANCH  31  34
ENDBRANCH  27  31
ENDBRANCH  26  28
BRANCH  26  37
ATOM     37  CB  SER A   2     -13.956   5.273  21.900  0.00  0.00    +0.166 C 
BRANCH  37  38
ATOM     38  OG  SER A   2     -14.488   5.689  23.141  0.00  0.00    -0.380 OA
ATOM     39  H   SER A   2     -13.881   5.406  23.870  0.00  0.00    +0.211 HD
ENDBRANCH  37  38
ENDBRANCH  26  37
ENDBRANCH  22  26
ENDBRANCH   1  23
BRANCH   1  40
ATOM     40  CB  PHE A   3      -9.823   3.718  19.429  0.00  0.00    +0.055 C 
BRANCH  40  41
ATOM     41  CG  PHE A   3     -10.221   5.159  19.264  0.00  0.00    -0.020 A 
ATOM     42  CD2 PHE A   3     -10.212   6.026  20.360  0.00  0.00    -0.004 A 
ATOM     43  CE2 PHE A   3     -10.562   7.349  20.223  0.00  0.00    -0.000 A 
ATOM     44  CZ  PHE A   3     -10.921   7.851  18.963  0.00  0.00    -0.000 A 
ATOM     45  CE1 PHE A   3     -10.921   7.010  17.856  0.00  0.00    -0.000 A 
ATOM     46  CD1 PHE A   3     -10.567   5.667  18.007  0.00  0.00    -0.004 A 
ENDBRANCH  40  41
ENDBRANCH   1  40
TORSDOF 20
REMARK  Name = ../refined-set-2016/2jkh/2jkh_pocket.pdb
REMARK  225 active torsions:
REMARK  status: ('A' for Active; 'I' for Inactive)
REMARK    1  A    between atoms: _1  and  _5
REMARK    2  A    between atoms: _5  and  _6
REMARK    3  A    between atoms: _5  and  _8
REMARK    4  A    between atoms: _8  and  _9
REMARK    5  A    between atoms: _12  and  _14
REMARK    6  A    between atoms: _14  and  _15
REMARK    7  A    between atoms: _14  and  _17
REMARK    8  A    between atoms: _20  and  _22
REMARK    9  A    between atoms: _22  and  _23
REMARK   10  A    between atoms: _22  and  _25
REMARK   11  A    between atoms: _25  and  _26
REMARK   12  A    between atoms: _32  and  _34
REMARK   13  A    between atoms: _34  and  _35
REMARK   14  A    between atoms: _34  and  _37
REMARK   15  A    between atoms: _37  and  _38
REMARK   16  A    between atoms: _43  and  _45
REMARK   17  A    between atoms: _45  and  _46
REMARK   18  A    between atoms: _45  and  _48
REMARK   19  A    between atoms: _48  and  _49
REMARK   20  A    between atoms: _49  and  _50
REMARK   21  A    between atoms: _55  and  _57
REMARK   22  A    between atoms: _57  and  _58
REMARK   23  A    between atoms: _57  and  _60
REMARK   24  A    between atoms: _60  and  _61
REMARK   25  A    between atoms: _67  and  _69
REMARK   26  A    between atoms: _69  and  _70
REMARK   27  A    between atoms: _69  and  _72
REMARK   28  A    between atoms: _72  and  _73
REMARK   29  A    between atoms: _76  and  _78
REMARK   30  A    between atoms: _78  and  _79
REMARK   31  A    between atoms: _78  and  _81
REMARK   32  A    between atoms: _81  and  _82
REMARK   33  A    between atoms: _82  and  _83
REMARK   34  A    between atoms: _83  and  _84
REMARK   35  A    between atoms: _84  and  _85
REMARK   36  A    between atoms: _89  and  _91
REMARK   37  A    between atoms: _91  and  _92
REMARK   38  A    between atoms: _91  and  _94
REMARK   39  A    between atoms: _94  and  _95
REMARK   40  A    between atoms: _95  and  _96
REMARK   41  A    between atoms: _99  and  _101
REMARK   42  A    between atoms: _101  and  _102
REMARK   43  A    between atoms: _101  and  _104
REMARK   44  A    between atoms: _104  and  _105
REMARK   45  A    between atoms: _108  and  _110
REMARK   46  A    between atoms: _110  and  _111
REMARK   47  A    between atoms: _110  and  _113
REMARK   48  A    between atoms: _113  and  _114
REMARK   49  A    between atoms: _119  and  _120
REMARK   50  A    between atoms: _122  and  _124
REMARK   51  A    between atoms: _124  and  _125
REMARK   52  A    between atoms: _124  and  _127
REMARK   53  A    between atoms: _127  and  _128
REMARK   54  A    between atoms: _131  and  _133
REMARK   55  A    between atoms: _133  and  _134
REMARK   56  A    between atoms: _133  and  _136
REMARK   57  A    between atoms: _136  and  _137
REMARK   58  A    between atoms: _140  and  _142
REMARK   59  A    between atoms: _142  and  _143
REMARK   60  A    between atoms: _142  and  _145
REMARK   61  A    between atoms: _148  and  _150
REMARK   62  A    between atoms: _150  and  _151
REMARK   63  A    between atoms: _150  and  _153
REMARK   64  A    between atoms: _153  and  _154
REMARK   65  A    between atoms: _154  and  _155
REMARK   66  A    between atoms: _155  and  _156
REMARK   67  A    between atoms: _165  and  _167
REMARK   68  A    between atoms: _167  and  _168
REMARK   69  A    between atoms: _167  and  _170
REMARK   70  A    between atoms: _170  and  _171
REMARK   71  A    between atoms: _176  and  _178
REMARK   72  A    between atoms: _178  and  _179
REMARK   73  A    between atoms: _178  and  _181
REMARK   74  A    between atoms: _181  and  _182
REMARK   75  A    between atoms: _182  and  _183
REMARK   76  A    between atoms: _186  and  _188
REMARK   77  A    between atoms: _188  and  _189
REMARK   78  A    between atoms: _188  and  _191
REMARK   79  A    between atoms: _191  and  _192
REMARK   80  A    between atoms: _192  and  _193
REMARK   81  A    between atoms: _193  and  _194
REMARK   82  A    between atoms: _194  and  _195
REMARK   83  A    between atoms: _199  and  _201
REMARK   84  A    between atoms: _201  and  _202
REMARK   85  A    between atoms: _204  and  _206
REMARK   86  A    between atoms: _206  and  _207
REMARK   87  A    between atoms: _206  and  _209
REMARK   88  A    between atoms: _212  and  _214
REMARK   89  A    between atoms: _214  and  _215
REMARK   90  A    between atoms: _214  and  _217
REMARK   91  A    between atoms: _217  and  _218
REMARK   92  A    between atoms: _220  and  _222
REMARK   93  A    between atoms: _222  and  _223
REMARK   94  A    between atoms: _222  and  _225
REMARK   95  A    between atoms: _225  and  _226
REMARK   96  A    between atoms: _228  and  _230
REMARK   97  A    between atoms: _230  and  _231
REMARK   98  A    between atoms: _230  and  _233
REMARK   99  A    between atoms: _233  and  _234
REMARK  100  A    between atoms: _240  and  _242
REMARK  101  A    between atoms: _242  and  _243
REMARK  102  A    between atoms: _242  and  _245
REMARK  103  A    between atoms: _245  and  _246
REMARK  104  A    between atoms: _249  and  _251
REMARK  105  A    between atoms: _251  and  _252
REMARK  106  A    between atoms: _251  and  _254
REMARK  107  A    between atoms: _254  and  _255
REMARK  108  A    between atoms: _258  and  _260
REMARK  109  A    between atoms: _260  and  _261
REMARK  110  A    between atoms: _260  and  _263
REMARK  111  A    between atoms: _263  and  _264
REMARK  112  A    between atoms: _264  and  _265
REMARK  113  A    between atoms: _267  and  _269
REMARK  114  A    between atoms: _269  and  _270
REMARK  115  A    between atoms: _269  and  _272
REMARK  116  A    between atoms: _272  and  _273
REMARK  117  A    between atoms: _279  and  _281
REMARK  118  A    between atoms: _281  and  _282
REMARK  119  A    between atoms: _281  and  _284
REMARK  120  A    between atoms: _286  and  _288
REMARK  121  A    between atoms: _288  and  _289
REMARK  122  A    between atoms: _292  and  _294
REMARK  123  A    between atoms: _294  and  _295
REMARK  124  A    between atoms: _297  and  _299
REMARK  125  A    between atoms: _299  and  _300
REMARK  126  A    between atoms: _299  and  _302
REMARK  127  A    between atoms: _302  and  _303
REMARK  128  A    between atoms: _303  and  _304
REMARK  129  A    between atoms: _307  and  _309
REMARK  130  A    between atoms: _309  and  _310
REMARK  131  A    between atoms: _309  and  _312
REMARK  132  A    between atoms: _312  and  _313
REMARK  133  A    between atoms: _316  and  _318
REMARK  134  A    between atoms: _318  and  _319
REMARK  135  A    between atoms: _322  and  _324
REMARK  136  A    between atoms: _324  and  _325
REMARK  137  A    between atoms: _324  and  _327
REMARK  138  A    between atoms: _327  and  _328
REMARK  139  A    between atoms: _328  and  _451
REMARK  140  A    between atoms: _329  and  _331
REMARK  141  A    between atoms: _331  and  _332
REMARK  142  A    between atoms: _331  and  _334
REMARK  143  A    between atoms: _334  and  _335
REMARK  144  A    between atoms: _335  and  _336
REMARK  145  A    between atoms: _341  and  _343
REMARK  146  A    between atoms: _343  and  _344
REMARK  147  A    between atoms: _346  and  _348
REMARK  148  A    between atoms: _348  and  _349
REMARK  149  A    between atoms: _348  and  _351
REMARK  150  A    between atoms: _351  and  _352
REMARK  151  A    between atoms: _355  and  _357
REMARK  152  A    between atoms: _357  and  _358
REMARK  153  A    between atoms: _357  and  _360
REMARK  154  A    between atoms: _360  and  _361
REMARK  155  A    between atoms: _363  and  _365
REMARK  156  A    between atoms: _365  and  _366
REMARK  157  A    between atoms: _368  and  _370
REMARK  158  A    between atoms: _370  and  _371
REMARK  159  A    between atoms: _373  and  _375
REMARK  160  A    between atoms: _375  and  _376
REMARK  161  A    between atoms: _375  and  _378
REMARK  162  A    between atoms: _378  and  _379
REMARK  163  A    between atoms: _384  and  _386
REMARK  164  A    between atoms: _386  and  _387
REMARK  165  A    between atoms: _386  and  _389
REMARK  166  A    between atoms: _389  and  _390
REMARK  167  A    between atoms: _393  and  _395
REMARK  168  A    between atoms: _395  and  _396
REMARK  169  A    between atoms: _395  and  _398
REMARK  170  A    between atoms: _401  and  _403
REMARK  171  A    between atoms: _403  and  _404
REMARK  172  A    between atoms: _403  and  _406
REMARK  173  A    between atoms: _406  and  _407
REMARK  174  A    between atoms: _409  and  _411
REMARK  175  A    between atoms: _411  and  _412
REMARK  176  A    between atoms: _411  and  _414
REMARK  177  A    between atoms: _414  and  _415
REMARK  178  A    between atoms: _425  and  _427
REMARK  179  A    between atoms: _427  and  _428
REMARK  180  A    between atoms: _430  and  _432
REMARK  181  A    between atoms: _432  and  _433
REMARK  182  A    between atoms: _432  and  _435
REMARK  183  A    between atoms: _435  and  _436
REMARK  184  A    between atoms: _436  and  _437
REMARK  185  A    between atoms: _440  and  _442
REMARK  186  A    between atoms: _442  and  _443
REMARK  187  A    between atoms: _445  and  _447
REMARK  188  A    between atoms: _447  and  _448
REMARK  189  A    between atoms: _447  and  _450
REMARK  190  A    between atoms: _450  and  _451
REMARK  191  A    between atoms: _452  and  _454
REMARK  192  A    between atoms: _454  and  _455
REMARK  193  A    between atoms: _458  and  _460
REMARK  194  A    between atoms: _460  and  _461
REMARK  195  A    between atoms: _460  and  _463
REMARK  196  A    between atoms: _463  and  _464
REMARK  197  A    between atoms: _464  and  _465
REMARK  198  A    between atoms: _465  and  _466
REMARK  199  A    between atoms: _475  and  _477
REMARK  200  A    between atoms: _477  and  _478
REMARK  201  A    between atoms: _477  and  _480
REMARK  202  A    between atoms: _480  and  _481
REMARK  203  A    between atoms: _481  and  _482
REMARK  204  A    between atoms: _482  and  _483
REMARK  205  A    between atoms: _483  and  _484
REMARK  206  A    between atoms: _488  and  _490
REMARK  207  A    between atoms: _490  and  _491
REMARK  208  A    between atoms: _490  and  _493
REMARK  209  A    between atoms: _493  and  _494
REMARK  210  A    between atoms: _499  and  _500
REMARK  211  A    between atoms: _502  and  _504
REMARK  212  A    between atoms: _504  and  _505
REMARK  213  A    between atoms: _507  and  _509
REMARK  214  A    between atoms: _509  and  _510
REMARK  215  A    between atoms: _509  and  _512
REMARK  216  A    between atoms: _512  and  _513
REMARK  217  A    between atoms: _516  and  _518
REMARK  218  A    between atoms: _518  and  _519
REMARK  219  A    between atoms: _518  and  _521
REMARK  220  A    between atoms: _521  and  _522
REMARK  221  A    between atoms: _527  and  _528
REMARK  222  A    between atoms: _530  and  _532
REMARK  223  A    between atoms: _532  and  _533
REMARK  224  A    between atoms: _532  and  _535
REMARK  225  A    between atoms: _535  and  _536
REMARK                            x       y       z     vdW  Elec       q    Type
REMARK                         _______ _______ _______ _____ _____    ______ ____
ROOT
ATOM      1  C   PHE A   2      -2.160  -2.237  26.505  0.00  0.00    +0.241 C 
ATOM      2  N   CYS A   3      -3.062  -2.484  27.473  0.00  0.00    -0.296 N 
ATOM      3  H   CYS A   3      -3.431  -3.453  27.553  0.00  0.00    +0.150 HD
ATOM      4  O   PHE A   2      -1.726  -1.091  26.257  0.00  0.00    -0.273 OA
ENDROOT
BRANCH   2   5
ATOM      5  CA  CYS A   3      -3.565  -1.476  28.430  0.00  0.00    +0.160 C 
BRANCH   5   6
ATOM      6  C   CYS A   3      -2.789  -1.559  29.740  0.00  0.00    +0.242 C 
ATOM      7  N   ALA A   4      -2.618  -0.405  30.373  0.00  0.00    -0.297 N 
ATOM      8  H   ALA A   4      -2.871   0.482  29.893  0.00  0.00    +0.150 HD
ATOM      9  O   CYS A   3      -2.394  -2.638  30.186  0.00  0.00    -0.273 OA
BRANCH   7  10
ATOM     10  CA  ALA A   4      -2.083  -0.358  31.725  0.00  0.00    +0.149 C 
ATOM     11  CB  ALA A   4      -0.535  -0.377  31.734  0.00  0.00    +0.031 C 
BRANCH  10  12
ATOM     12  C   ALA A   4      -2.606   0.896  32.400  0.00  0.00    +0.241 C 
ATOM     13  N   GLY A   5      -2.722   0.823  33.719  0.00  0.00    -0.296 N 
ATOM     14  H   GLY A   5      -2.479  -0.068  34.198  0.00  0.00    +0.150 HD
ATOM     15  O   ALA A   4      -2.921   1.898  31.733  0.00  0.00    -0.273 OA
BRANCH  13  16
ATOM     16  CA  GLY A   5      -3.177   1.947  34.513  0.00  0.00    +0.163 C 
BRANCH  16  17
ATOM     17  C   GLY A   5      -4.368   1.552  35.354  0.00  0.00    +0.229 C 
ATOM     18  O   GLY A   5      -4.440   0.411  35.826  0.00  0.00    -0.286 OA
ENDBRANCH  16  17
ENDBRANCH  13  16
ENDBRANCH  10  12
ENDBRANCH   7  10
ENDBRANCH   5   6
BRANCH   5  19
ATOM     19  CB  CYS A   3      -5.060  -1.691  28.786  0.00  0.00    +0.098 C 
ATOM     20  SG  CYS A   3      -6.351  -0.874  27.804  0.00  0.00    -0.080 S 
ENDBRANCH   5  19
ENDBRANCH   2   5
BRANCH   1  21
ATOM     21  CA  PHE A   2      -1.761  -3.414  25.656  0.00  0.00    +0.153 C 
BRANCH  21  23
ATOM     22  C   MET A   1      -1.447  -3.577  23.245  0.00  0.00    +0.238 C 
ATOM     23  N   PHE A   2      -1.187  -2.955  24.395  0.00  0.00    -0.297 N 
ATOM     24  H   PHE A   2      -0.561  -2.124  24.394  0.00  0.00    +0.150 HD
ATOM     25  O   MET A   1      -1.943  -4.710  23.188  0.00  0.00    -0.274 OA
BRANCH  22  26
ATOM     26  CA  MET A   1      -1.125  -2.816  21.988  0.00  0.00    +0.146 C 
BRANCH  26  27
ATOM     27  N   MET A   1      -0.842  -3.776  20.923  0.00  0.00    -0.238 NA
ATOM     28  H   MET A   1      -1.520  -4.551  20.778  0.00  0.00    +0.142 HD
ENDBRANCH  26  27
BRANCH  26  29
ATOM     29  CB  MET A   1      -2.346  -1.986  21.614  0.00  0.00    +0.038 C 
BRANCH  29  30
ATOM     30  CG  MET A   1      -2.158  -1.088  20.388  0.00  0.00    +0.060 C 
BRANCH  30  31
ATOM     31  SD  MET A   1      -3.740  -0.331  19.941  0.00  0.00    -0.139 S 
ATOM     32  CE  MET A   1      -3.403   0.145  18.257  0.00  0.00    +0.069 C 
ENDBRANCH  30  31
ENDBRANCH  29  30
ENDBRANCH  26  29
ENDBRANCH  22  26
ENDBRANCH  21  23
BRANCH  21  33
ATOM     33  CB  PHE A   2      -0.812  -4.342  26.404  0.00  0.00    +0.055 C 
BRANCH  33  34
ATOM     34  CG  PHE A   2       0.417  -3.671  26.983  0.00  0.00    -0.020 A 
ATOM     35  CD2 PHE A   2       0.394  -3.190  28.294  0.00  0.00    -0.004 A 
ATOM     36  CE2 PHE A   2       1.547  -2.606  28.858  0.00  0.00    -0.000 A 
ATOM     37  CZ  PHE A   2       2.732  -2.512  28.092  0.00  0.00    -0.000 A 
ATOM     38  CE1 PHE A   2       2.743  -2.974  26.757  0.00  0.00    -0.000 A 
ATOM     39  CD1 PHE A   2       1.590  -3.570  26.241  0.00  0.00    -0.004 A 
ENDBRANCH  33  34
ENDBRANCH  21  33
ENDBRANCH   1  21
TORSDOF 16
REMARK  Name = ../refined-set-2016/2jkh/2jkh_pocket.pdb
REMARK  225 active torsions:
REMARK  status: ('A' for Active; 'I' for Inactive)
REMARK    1  A    between atoms: _1  and  _5
REMARK    2  A    between atoms: _5  and  _6
REMARK    3  A    between atoms: _5  and  _8
REMARK    4  A    between atoms: _8  and  _9
REMARK    5  A    between atoms: _12  and  _14
REMARK    6  A    between atoms: _14  and  _15
REMARK    7  A    between atoms: _14  and  _17
REMARK    8  A    between atoms: _20  and  _22
REMARK    9  A    between atoms: _22  and  _23
REMARK   10  A    between atoms: _22  and  _25
REMARK   11  A    between atoms: _25  and  _26
REMARK   12  A    between atoms: _32  and  _34
REMARK   13  A    between atoms: _34  and  _35
REMARK   14  A    between atoms: _34  and  _37
REMARK   15  A    between atoms: _37  and  _38
REMARK   16  A    between atoms: _43  and  _45
REMARK   17  A    between atoms: _45  and  _46
REMARK   18  A    between atoms: _45  and  _48
REMARK   19  A    between atoms: _48  and  _49
REMARK   20  A    between atoms: _49  and  _50
REMARK   21  A    between atoms: _55  and  _57
REMARK   22  A    between atoms: _57  and  _58
REMARK   23  A    between atoms: _57  and  _60
REMARK   24  A    between atoms: _60  and  _61
REMARK   25  A    between atoms: _67  and  _69
REMARK   26  A    between atoms: _69  and  _70
REMARK   27  A    between atoms: _69  and  _72
REMARK   28  A    between atoms: _72  and  _73
REMARK   29  A    between atoms: _76  and  _78
REMARK   30  A    between atoms: _78  and  _79
REMARK   31  A    between atoms: _78  and  _81
REMARK   32  A    between atoms: _81  and  _82
REMARK   33  A    between atoms: _82  and  _83
REMARK   34  A    between atoms: _83  and  _84
REMARK   35  A    between atoms: _84  and  _85
REMARK   36  A    between atoms: _89  and  _91
REMARK   37  A    between atoms: _91  and  _92
REMARK   38  A    between atoms: _91  and  _94
REMARK   39  A    between atoms: _94  and  _95
REMARK   40  A    between atoms: _95  and  _96
REMARK   41  A    between atoms: _99  and  _101
REMARK   42  A    between atoms: _101  and  _102
REMARK   43  A    between atoms: _101  and  _104
REMARK   44  A    between atoms: _104  and  _105
REMARK   45  A    between atoms: _108  and  _110
REMARK   46  A    between atoms: _110  and  _111
REMARK   47  A    between atoms: _110  and  _113
REMARK   48  A    between atoms: _113  and  _114
REMARK   49  A    between atoms: _119  and  _120
REMARK   50  A    between atoms: _122  and  _124
REMARK   51  A    between atoms: _124  and  _125
REMARK   52  A    between atoms: _124  and  _127
REMARK   53  A    between atoms: _127  and  _128
REMARK   54  A    between atoms: _131  and  _133
REMARK   55  A    between atoms: _133  and  _134
REMARK   56  A    between atoms: _133  and  _136
REMARK   57  A    between atoms: _136  and  _137
REMARK   58  A    between atoms: _140  and  _142
REMARK   59  A    between atoms: _142  and  _143
REMARK   60  A    between atoms: _142  and  _145
REMARK   61  A    between atoms: _148  and  _150
REMARK   62  A    between atoms: _150  and  _151
REMARK   63  A    between atoms: _150  and  _153
REMARK   64  A    between atoms: _153  and  _154
REMARK   65  A    between atoms: _154  and  _155
REMARK   66  A    between atoms: _155  and  _156
REMARK   67  A    between atoms: _165  and  _167
REMARK   68  A    between atoms: _167  and  _168
REMARK   69  A    between atoms: _167  and  _170
REMARK   70  A    between atoms: _170  and  _171
REMARK   71  A    between atoms: _176  and  _178
REMARK   72  A    between atoms: _178  and  _179
REMARK   73  A    between atoms: _178  and  _181
REMARK   74  A    between atoms: _181  and  _182
REMARK   75  A    between atoms: _182  and  _183
REMARK   76  A    between atoms: _186  and  _188
REMARK   77  A    between atoms: _188  and  _189
REMARK   78  A    between atoms: _188  and  _191
REMARK   79  A    between atoms: _191  and  _192
REMARK   80  A    between atoms: _192  and  _193
REMARK   81  A    between atoms: _193  and  _194
REMARK   82  A    between atoms: _194  and  _195
REMARK   83  A    between atoms: _199  and  _201
REMARK   84  A    between atoms: _201  and  _202
REMARK   85  A    between atoms: _204  and  _206
REMARK   86  A    between atoms: _206  and  _207
REMARK   87  A    between atoms: _206  and  _209
REMARK   88  A    between atoms: _212  and  _214
REMARK   89  A    between atoms: _214  and  _215
REMARK   90  A    between atoms: _214  and  _217
REMARK   91  A    between atoms: _217  and  _218
REMARK   92  A    between atoms: _220  and  _222
REMARK   93  A    between atoms: _222  and  _223
REMARK   94  A    between atoms: _222  and  _225
REMARK   95  A    between atoms: _225  and  _226
REMARK   96  A    between atoms: _228  and  _230
REMARK   97  A    between atoms: _230  and  _231
REMARK   98  A    between atoms: _230  and  _233
REMARK   99  A    between atoms: _233  and  _234
REMARK  100  A    between atoms: _240  and  _242
REMARK  101  A    between atoms: _242  and  _243
REMARK  102  A    between atoms: _242  and  _245
REMARK  103  A    between atoms: _245  and  _246
REMARK  104  A    between atoms: _249  and  _251
REMARK  105  A    between atoms: _251  and  _252
REMARK  106  A    between atoms: _251  and  _254
REMARK  107  A    between atoms: _254  and  _255
REMARK  108  A    between atoms: _258  and  _260
REMARK  109  A    between atoms: _260  and  _261
REMARK  110  A    between atoms: _260  and  _263
REMARK  111  A    between atoms: _263  and  _264
REMARK  112  A    between atoms: _264  and  _265
REMARK  113  A    between atoms: _267  and  _269
REMARK  114  A    between atoms: _269  and  _270
REMARK  115  A    between atoms: _269  and  _272
REMARK  116  A    between atoms: _272  and  _273
REMARK  117  A    between atoms: _279  and  _281
REMARK  118  A    between atoms: _281  and  _282
REMARK  119  A    between atoms: _281  and  _284
REMARK  120  A    between atoms: _286  and  _288
REMARK  121  A    between atoms: _288  and  _289
REMARK  122  A    between atoms: _292  and  _294
REMARK  123  A    between atoms: _294  and  _295
REMARK  124  A    between atoms: _297  and  _299
REMARK  125  A    between atoms: _299  and  _300
REMARK  126  A    between atoms: _299  and  _302
REMARK  127  A    between atoms: _302  and  _303
REMARK  128  A    between atoms: _303  and  _304
REMARK  129  A    between atoms: _307  and  _309
REMARK  130  A    between atoms: _309  and  _310
REMARK  131  A    between atoms: _309  and  _312
REMARK  132  A    between atoms: _312  and  _313
REMARK  133  A    between atoms: _316  and  _318
REMARK  134  A    between atoms: _318  and  _319
REMARK  135  A    between atoms: _322  and  _324
REMARK  136  A    between atoms: _324  and  _325
REMARK  137  A    between atoms: _324  and  _327
REMARK  138  A    between atoms: _327  and  _328
REMARK  139  A    between atoms: _328  and  _451
REMARK  140  A    between atoms: _329  and  _331
REMARK  141  A    between atoms: _331  and  _332
REMARK  142  A    between atoms: _331  and  _334
REMARK  143  A    between atoms: _334  and  _335
REMARK  144  A    between atoms: _335  and  _336
REMARK  145  A    between atoms: _341  and  _343
REMARK  146  A    between atoms: _343  and  _344
REMARK  147  A    between atoms: _346  and  _348
REMARK  148  A    between atoms: _348  and  _349
REMARK  149  A    between atoms: _348  and  _351
REMARK  150  A    between atoms: _351  and  _352
REMARK  151  A    between atoms: _355  and  _357
REMARK  152  A    between atoms: _357  and  _358
REMARK  153  A    between atoms: _357  and  _360
REMARK  154  A    between atoms: _360  and  _361
REMARK  155  A    between atoms: _363  and  _365
REMARK  156  A    between atoms: _365  and  _366
REMARK  157  A    between atoms: _368  and  _370
REMARK  158  A    between atoms: _370  and  _371
REMARK  159  A    between atoms: _373  and  _375
REMARK  160  A    between atoms: _375  and  _376
REMARK  161  A    between atoms: _375  and  _378
REMARK  162  A    between atoms: _378  and  _379
REMARK  163  A    between atoms: _384  and  _386
REMARK  164  A    between atoms: _386  and  _387
REMARK  165  A    between atoms: _386  and  _389
REMARK  166  A    between atoms: _389  and  _390
REMARK  167  A    between atoms: _393  and  _395
REMARK  168  A    between atoms: _395  and  _396
REMARK  169  A    between atoms: _395  and  _398
REMARK  170  A    between atoms: _401  and  _403
REMARK  171  A    between atoms: _403  and  _404
REMARK  172  A    between atoms: _403  and  _406
REMARK  173  A    between atoms: _406  and  _407
REMARK  174  A    between atoms: _409  and  _411
REMARK  175  A    between atoms: _411  and  _412
REMARK  176  A    between atoms: _411  and  _414
REMARK  177  A    between atoms: _414  and  _415
REMARK  178  A    between atoms: _425  and  _427
REMARK  179  A    between atoms: _427  and  _428
REMARK  180  A    between atoms: _430  and  _432
REMARK  181  A    between atoms: _432  and  _433
REMARK  182  A    between atoms: _432  and  _435
REMARK  183  A    between atoms: _435  and  _436
REMARK  184  A    between atoms: _436  and  _437
REMARK  185  A    between atoms: _440  and  _442
REMARK  186  A    between atoms: _442  and  _443
REMARK  187  A    between atoms: _445  and  _447
REMARK  188  A    between atoms: _447  and  _448
REMARK  189  A    between atoms: _447  and  _450
REMARK  190  A    between atoms: _450  and  _451
REMARK  191  A    between atoms: _452  and  _454
REMARK  192  A    between atoms: _454  and  _455
REMARK  193  A    between atoms: _458  and  _460
REMARK  194  A    between atoms: _460  and  _461
REMARK  195  A    between atoms: _460  and  _463
REMARK  196  A    between atoms: _463  and  _464
REMARK  197  A    between atoms: _464  and  _465
REMARK  198  A    between atoms: _465  and  _466
REMARK  199  A    between atoms: _475  and  _477
REMARK  200  A    between atoms: _477  and  _478
REMARK  201  A    between atoms: _477  and  _480
REMARK  202  A    between atoms: _480  and  _481
REMARK  203  A    between atoms: _481  and  _482
REMARK  204  A    between atoms: _482  and  _483
REMARK  205  A    between atoms: _483  and  _484
REMARK  206  A    between atoms: _488  and  _490
REMARK  207  A    between atoms: _490  and  _491
REMARK  208  A    between atoms: _490  and  _493
REMARK  209  A    between atoms: _493  and  _494
REMARK  210  A    between atoms: _499  and  _500
REMARK  211  A    between atoms: _502  and  _504
REMARK  212  A    between atoms: _504  and  _505
REMARK  213  A    between atoms: _507  and  _509
REMARK  214  A    between atoms: _509  and  _510
REMARK  215  A    between atoms: _509  and  _512
REMARK  216  A    between atoms: _512  and  _513
REMARK  217  A    between atoms: _516  and  _518
REMARK  218  A    between atoms: _518  and  _519
REMARK  219  A    between atoms: _518  and  _521
REMARK  220  A    between atoms: _521  and  _522
REMARK  221  A    between atoms: _527  and  _528
REMARK  222  A    between atoms: _530  and  _532
REMARK  223  A    between atoms: _532  and  _533
REMARK  224  A    between atoms: _532  and  _535
REMARK  225  A    between atoms: _535  and  _536
REMARK                            x       y       z     vdW  Elec       q    Type
REMARK                         _______ _______ _______ _____ _____    ______ ____
ROOT
ATOM      1  CA  SER A   8      -5.555  11.198  30.626  0.00  0.00    +0.160 C 
ENDROOT
BRANCH   1   2
ATOM      2  N   SER A   8      -6.553  11.744  29.685  0.00  0.00    -0.296 N 
ATOM      3  H   SER A   8      -7.248  12.435  30.032  0.00  0.00    +0.150 HD
ATOM      4  C   ASP A   7      -6.590  11.380  28.412  0.00  0.00    +0.243 C 
ATOM      5  O   ASP A   7      -5.775  10.598  27.894  0.00  0.00    -0.273 OA
BRANCH   4   6
ATOM      6  CA  ASP A   7      -7.744  11.959  27.604  0.00  0.00    +0.176 C 
BRANCH   6   7
ATOM      7  N   ASP A   7      -8.029  11.089  26.477  0.00  0.00    -0.295 N 
ATOM      8  C   GLY A   6      -8.597   9.900  26.644  0.00  0.00    +0.241 C 
ATOM      9  O   GLY A   6      -9.081   9.554  27.709  0.00  0.00    -0.273 OA
ATOM     10  H   ASP A   7      -7.783  11.404  25.517  0.00  0.00    +0.150 HD
BRANCH   8  11
ATOM     11  CA  GLY A   6      -8.583   8.944  25.472  0.00  0.00    +0.149 C 
BRANCH  11  12
ATOM     12  N   GLY A   6      -7.454   8.035  25.684  0.00  0.00    -0.297 N 
ATOM     13  H   GLY A   6      -7.586   7.186  26.270  0.00  0.00    +0.150 HD
ATOM     14  C   GLN A   5      -6.267   8.275  25.143  0.00  0.00    +0.243 C 
ATOM     15  O   GLN A   5      -6.044   9.207  24.371  0.00  0.00    -0.273 OA
BRANCH  14  16
ATOM     16  CA  GLN A   5      -5.144   7.339  25.543  0.00  0.00    +0.176 C 
BRANCH  16  17
ATOM     17  N   GLN A   5      -4.023   7.549  24.650  0.00  0.00    -0.295 N 
ATOM     18  C   TRP A   4      -3.088   6.627  24.477  0.00  0.00    +0.241 C 
ATOM     19  O   TRP A   4      -2.978   5.631  25.204  0.00  0.00    -0.273 OA
ATOM     20  H   GLN A   5      -3.950   8.447  24.131  0.00  0.00    +0.150 HD
BRANCH  18  21
ATOM     21  CA  TRP A   4      -2.148   6.888  23.332  0.00  0.00    +0.153 C 
BRANCH  21  22
ATOM     22  N   TRP A   4      -0.994   5.974  23.366  0.00  0.00    -0.297 N 
ATOM     23  H   TRP A   4      -1.051   5.094  23.917  0.00  0.00    +0.150 HD
ATOM     24  C   SER A   3       0.123   6.262  22.699  0.00  0.00    +0.243 C 
ATOM     25  O   SER A   3       0.257   7.309  22.048  0.00  0.00    -0.273 OA
BRANCH  24  26
ATOM     26  CA  SER A   3       1.276   5.264  22.774  0.00  0.00    +0.178 C 
BRANCH  26  27
ATOM     27  N   SER A   3       1.821   5.062  24.122  0.00  0.00    -0.295 N 
ATOM     28  H   SER A   3       1.231   4.646  24.871  0.00  0.00    +0.150 HD
ATOM     29  C   VAL A   2       3.092   5.421  24.377  0.00  0.00    +0.241 C 
ATOM     30  O   VAL A   2       3.810   6.043  23.578  0.00  0.00    -0.273 OA
BRANCH  29  31
ATOM     31  CA  VAL A   2       3.689   5.019  25.734  0.00  0.00    +0.148 C 
BRANCH  31  32
ATOM     32  N   VAL A   2       4.890   4.257  25.497  0.00  0.00    -0.297 N 
ATOM     33  H   VAL A   2       5.804   4.600  25.856  0.00  0.00    +0.150 HD
ATOM     34  C   ILE A   1       4.826   3.115  24.819  0.00  0.00    +0.238 C 
ATOM     35  O   ILE A   1       3.753   2.648  24.405  0.00  0.00    -0.274 OA
BRANCH  34  36
ATOM     36  CA  ILE A   1       6.122   2.358  24.557  0.00  0.00    +0.145 C 
BRANCH  36  37
ATOM     37  CB  ILE A   1       6.442   2.425  23.042  0.00  0.00    +0.025 C 
ATOM     38  CG2 ILE A   1       6.622   3.903  22.606  0.00  0.00    +0.002 C 
BRANCH  37  39
ATOM     39  CG1 ILE A   1       7.672   1.580  22.738  0.00  0.00    +0.002 C 
ATOM     40  CD1 ILE A   1       7.848   1.330  21.245  0.00  0.00    +0.000 C 
ENDBRANCH  37  39
ENDBRANCH  36  37
BRANCH  36  41
ATOM     41  N   ILE A   1       5.877   0.980  24.961  0.00  0.00    -0.238 NA
ATOM     42  H   ILE A   1       5.081   0.473  24.524  0.00  0.00    +0.142 HD
ENDBRANCH  36  41
ENDBRANCH  34  36
ENDBRANCH  31  32
BRANCH  31  43
ATOM     43  CB  VAL A   2       4.026   6.281  26.553  0.00  0.00    +0.027 C 
ATOM     44  CG2 VAL A   2       4.699   5.934  27.901  0.00  0.00    +0.002 C 
ATOM     45  CG1 VAL A   2       2.749   7.091  26.808  0.00  0.00    +0.002 C 
ENDBRANCH  31  43
ENDBRANCH  29  31
ENDBRANCH  26  27
BRANCH  26  46
ATOM     46  CB  SER A   3       0.971   3.923  22.145  0.00  0.00    +0.166 C 
BRANCH  46  47
ATOM     47  OG  SER A   3       0.539   4.092  20.787  0.00  0.00    -0.380 OA
ATOM     48  H   SER A   3       1.255   4.537  20.267  0.00  0.00    +0.211 HD
ENDBRANCH  46  47
ENDBRANCH  26  46
ENDBRANCH  24  26
ENDBRANCH  21  22
BRANCH  21  49
ATOM     49  CB  TRP A   4      -2.909   6.821  21.999  0.00  0.00    +0.057 C 
BRANCH  49  50
ATOM     50  CG  TRP A   4      -3.430   5.487  21.628  0.00  0.00    -0.002 A 
ATOM     51  CD2 TRP A   4      -4.762   4.984  21.828  0.00  0.00    +0.013 A 
ATOM     52  CE3 TRP A   4      -5.912   5.505  22.419  0.00  0.00    +0.001 A 
ATOM     53  CZ3 TRP A   4      -7.067   4.743  22.427  0.00  0.00    +0.000 A 
ATOM     54  CH2 TRP A   4      -7.088   3.457  21.908  0.00  0.00    +0.001 A 
ATOM     55  CZ2 TRP A   4      -5.977   2.901  21.320  0.00  0.00    +0.017 A 
ATOM     56  CE2 TRP A   4      -4.802   3.684  21.296  0.00  0.00    +0.056 A 
ATOM     57  NE1 TRP A   4      -3.556   3.406  20.781  0.00  0.00    -0.352 N 
ATOM     58  HE1 TRP A   4      -3.278   2.519  20.315  0.00  0.00    +0.166 HD
ATOM     59  CD1 TRP A   4      -2.740   4.494  20.984  0.00  0.00    +0.068 A 
ENDBRANCH  49  50
ENDBRANCH  21  49
ENDBRANCH  18  21
ENDBRANCH  16  17
ENDBRANCH  14  16
ENDBRANCH  11  12
BRANCH  11  60
ATOM     60  CB  GLY A   6      -9.889   8.142  25.397  0.00  0.00    +0.041 C 
BRANCH  60  61
ATOM     61  CG  GLY A   6      -9.957   7.206  24.209  0.00  0.00    +0.116 C 
BRANCH  61  62
ATOM     62  CD  GLY A   6     -11.264   6.425  24.158  0.00  0.00    +0.365 C 
ATOM     63  OE2 GLY A   6     -11.221   5.201  24.176  0.00  0.00    -0.246 OA
ATOM     64  OE1 GLY A   6     -12.341   7.058  24.110  0.00  0.00    -0.246 OA
ENDBRANCH  61  62
ENDBRANCH  60  61
ENDBRANCH  11  60
ENDBRANCH   8  11
ENDBRANCH   6   7
ENDBRANCH   4   6
ENDBRANCH   1   2
BRANCH   1  65
ATOM     65  C   SER A   8      -6.213  11.007  31.964  0.00  0.00    +0.242 C 
ATOM     66  N   GLY A   9      -6.003   9.835  32.564  0.00  0.00    -0.297 N 
ATOM     67  H   GLY A   9      -5.399   9.141  32.080  0.00  0.00    +0.150 HD
ATOM     68  O   SER A   8      -6.870  11.923  32.464  0.00  0.00    -0.273 OA
BRANCH  66  69
ATOM     69  CA  GLY A   9      -6.569   9.465  33.861  0.00  0.00    +0.149 C 
ATOM     70  CB  GLY A   9      -5.921  10.256  35.005  0.00  0.00    +0.031 C 
BRANCH  69  71
ATOM     71  C   GLY A   9      -8.091   9.558  33.904  0.00  0.00    +0.241 C 
ATOM     72  O   GLY A   9      -8.649   9.712  34.979  0.00  0.00    -0.273 OA
ATOM     73  N   GLY A  10      -8.745   9.398  32.758  0.00  0.00    -0.298 N 
ATOM     74  H   GLY A  10      -8.218   9.279  31.870  0.00  0.00    +0.150 HD
BRANCH  73  75
ATOM     75  CA  GLY A  10     -10.220   9.389  32.748  0.00  0.00    +0.137 C 
BRANCH  75  76
ATOM     76  C   GLY A  10     -10.788   8.135  33.365  0.00  0.00    +0.227 C 
ATOM     77  O   GLY A  10     -10.240   7.021  33.231  0.00  0.00    -0.286 OA
ENDBRANCH  75  76
BRANCH  75  78
ATOM     78  CB  GLY A  10     -10.787   9.540  31.341  0.00  0.00    +0.031 C 
BRANCH  78  79
ATOM     79  CG  GLY A  10     -10.519  10.877  30.748  0.00  0.00    +0.045 C 
BRANCH  79  80
ATOM     80  CD  GLY A  10     -11.458  11.129  29.571  0.00  0.00    +0.174 C 
BRANCH  80  81
ATOM     81  NE  GLY A  10     -11.015  12.295  28.817  0.00  0.00    -0.265 N 
ATOM     82  HE  GLY A  10     -10.497  13.031  29.338  0.00  0.00    +0.259 HD
ATOM     83  CZ  GLY A  10     -11.218  12.496  27.517  0.00  0.00    +0.342 C 
ATOM     84  NH2 GLY A  10     -10.733  13.588  26.960  0.00  0.00    -0.292 N 
ATOM     85 HH21 GLY A  10     -10.203  14.274  27.535  0.00  0.00    +0.255 HD
ATOM     86 HH22 GLY A  10     -10.881  13.764  25.946  0.00  0.00    +0.255 HD
ATOM     87  NH1 GLY A  10     -11.877  11.614  26.772  0.00  0.00    -0.292 N 
ATOM     88 HH11 GLY A  10     -12.247  10.743  27.203  0.00  0.00    +0.255 HD
ATOM     89 HH12 GLY A  10     -12.022  11.795  25.758  0.00  0.00    +0.255 HD
ENDBRANCH  80  81
ENDBRANCH  79  80
ENDBRANCH  78  79
ENDBRANCH  75  78
ENDBRANCH  73  75
ENDBRANCH  69  71
ENDBRANCH  66  69
ENDBRANCH   1  65
BRANCH   1  90
ATOM     90  CB  SER A   8      -4.383  12.156  30.794  0.00  0.00    +0.098 C 
BRANCH  90  91
ATOM     91  SG  SER A   8      -3.675  12.715  29.260  0.00  0.00    -0.080 S 
BRANCH  91  92
ATOM     92  SG  TRP A   4      -2.221  13.991  29.880  0.00  0.00    -0.080 S 
BRANCH  92  93
ATOM     93  CB  TRP A   4      -0.856  12.889  30.343  0.00  0.00    +0.098 C 
BRANCH  93  94
ATOM     94  CA  TRP A   4      -0.453  11.800  29.337  0.00  0.00    +0.160 C 
BRANCH  94  97
ATOM     95  C   SER A   3      -0.287   9.869  30.751  0.00  0.00    +0.241 C 
ATOM     96  O   SER A   3      -1.522   9.837  30.875  0.00  0.00    -0.273 OA
ATOM     97  N   TRP A   4       0.333  10.778  30.009  0.00  0.00    -0.296 N 
ATOM     98  H   TRP A   4       1.368  10.760  29.909  0.00  0.00    +0.150 HD
BRANCH  95  99
ATOM     99  CA  SER A   3       0.602   8.848  31.464  0.00  0.00    +0.149 C 
ATOM    100  CB  SER A   3       1.381   7.988  30.477  0.00  0.00    +0.031 C 
BRANCH  99 103
ATOM    101  C   VAL A   2      -0.690   8.483  33.482  0.00  0.00    +0.241 C 
ATOM    102  O   VAL A   2      -0.183   9.447  34.036  0.00  0.00    -0.273 OA
ATOM    103  N   SER A   3      -0.235   8.009  32.326  0.00  0.00    -0.297 N 
ATOM    104  H   SER A   3      -0.474   7.040  32.033  0.00  0.00    +0.150 HD
BRANCH 101 105
ATOM    105  CA  VAL A   2      -1.870   7.777  34.086  0.00  0.00    +0.160 C 
BRANCH 105 108
ATOM    106  C   ILE A   1      -2.904   7.725  36.323  0.00  0.00    +0.238 C 
ATOM    107  O   ILE A   1      -3.600   6.759  36.040  0.00  0.00    -0.274 OA
ATOM    108  N   VAL A   2      -2.025   8.249  35.471  0.00  0.00    -0.297 N 
ATOM    109  H   VAL A   2      -1.420   9.028  35.800  0.00  0.00    +0.150 HD
BRANCH 106 110
ATOM    110  CA  ILE A   1      -3.005   8.320  37.704  0.00  0.00    +0.145 C 
BRANCH 110 111
ATOM    111  N   ILE A   1      -4.444   8.375  37.994  0.00  0.00    -0.238 NA
ATOM    112  H   ILE A   1      -5.074   7.639  37.617  0.00  0.00    +0.142 HD
ENDBRANCH 110 111
BRANCH 110 113
ATOM    113  CB  ILE A   1      -2.259   7.408  38.698  0.00  0.00    +0.038 C 
BRANCH 113 114
ATOM    114  CG  ILE A   1      -2.256   7.883  40.171  0.00  0.00    +0.116 C 
BRANCH 114 115
ATOM    115  CD  ILE A   1      -1.229   7.152  41.003  0.00  0.00    +0.365 C 
ATOM    116  OE2 ILE A   1      -0.329   7.822  41.556  0.00  0.00    -0.246 OA
ATOM    117  OE1 ILE A   1      -1.329   5.899  41.039  0.00  0.00    -0.246 OA
ENDBRANCH 114 115
ENDBRANCH 113 114
ENDBRANCH 110 113
ENDBRANCH 106 110
ENDBRANCH 105 108
BRANCH 105 118
ATOM    118  CB  VAL A   2      -3.149   8.173  33.318  0.00  0.00    +0.143 C 
BRANCH 118 119
ATOM    119  CG  VAL A   2      -3.379   7.423  32.007  0.00  0.00    +0.367 C 
ATOM    120  OD2 VAL A   2      -2.567   6.572  31.554  0.00  0.00    -0.246 OA
ATOM    121  OD1 VAL A   2      -4.434   7.766  31.381  0.00  0.00    -0.246 OA
ENDBRANCH 118 119
ENDBRANCH 105 118
ENDBRANCH 101 105
ENDBRANCH  99 103
ENDBRANCH  95  99
ENDBRANCH  94  97
BRANCH  94 122
ATOM    122  C   TRP A   4       0.351  12.366  28.168  0.00  0.00    +0.242 C 
ATOM    123  O   TRP A   4       1.491  11.950  27.887  0.00  0.00    -0.273 OA
ATOM    124  N   GLN A   5      -0.264  13.321  27.472  0.00  0.00    -0.297 N 
ATOM    125  H   GLN A   5      -1.241  13.578  27.721  0.00  0.00    +0.150 HD
BRANCH 124 126
ATOM    126  CA  GLN A   5       0.397  14.020  26.365  0.00  0.00    +0.149 C 
BRANCH 126 127
ATOM    127  C   GLN A   5       1.783  14.521  26.788  0.00  0.00    +0.241 C 
ATOM    128  O   GLN A   5       1.931  15.103  27.871  0.00  0.00    -0.273 OA
ATOM    129  N   GLY A   6       2.793  14.230  25.961  0.00  0.00    -0.295 N 
ATOM    130  H   GLY A   6       2.590  13.727  25.074  0.00  0.00    +0.150 HD
BRANCH 129 131
ATOM    131  CA  GLY A   6       4.162  14.596  26.266  0.00  0.00    +0.176 C 
BRANCH 131 132
ATOM    132  C   GLY A   6       4.979  13.424  26.819  0.00  0.00    +0.243 C 
ATOM    133  N   ASP A   7       4.286  12.423  27.385  0.00  0.00    -0.296 N 
ATOM    134  H   ASP A   7       3.266  12.544  27.547  0.00  0.00    +0.150 HD
ATOM    135  O   GLY A   6       6.199  13.442  26.757  0.00  0.00    -0.273 OA
BRANCH 133 136
ATOM    136  CA  ASP A   7       4.927  11.158  27.783  0.00  0.00    +0.160 C 
BRANCH 136 137
ATOM    137  C   ASP A   7       5.028  10.187  26.626  0.00  0.00    +0.241 C 
ATOM    138  O   ASP A   7       5.832   9.238  26.692  0.00  0.00    -0.273 OA
ATOM    139  N   SER A   8       4.158  10.345  25.618  0.00  0.00    -0.295 N 
ATOM    140  H   SER A   8       3.540  11.181  25.593  0.00  0.00    +0.150 HD
BRANCH 139 141
ATOM    141  CA  SER A   8       4.075   9.342  24.549  0.00  0.00    +0.178 C 
BRANCH 141 142
ATOM    142  C   SER A   8       5.439   9.222  23.868  0.00  0.00    +0.243 C 
ATOM    143  O   SER A   8       6.171  10.197  23.748  0.00  0.00    -0.273 OA
ATOM    144  N   GLY A   9       5.774   7.993  23.491  0.00  0.00    -0.295 N 
ATOM    145  H   GLY A   9       5.046   7.256  23.579  0.00  0.00    +0.150 HD
BRANCH 144 146
ATOM    146  CA  GLY A   9       7.067   7.587  22.967  0.00  0.00    +0.176 C 
BRANCH 146 147
ATOM    147  C   GLY A   9       8.019   7.094  24.051  0.00  0.00    +0.243 C 
ATOM    148  N   GLY A  10       7.704   7.392  25.335  0.00  0.00    -0.296 N 
ATOM    149  H   GLY A  10       6.795   7.849  25.551  0.00  0.00    +0.150 HD
ATOM    150  O   GLY A   9       9.002   6.430  23.743  0.00  0.00    -0.273 OA
BRANCH 148 151
ATOM    151  CA  GLY A  10       8.627   7.078  26.413  0.00  0.00    +0.163 C 
BRANCH 151 152
ATOM    152  C   GLY A  10       8.480   5.659  26.930  0.00  0.00    +0.229 C 
ATOM    153  O   GLY A  10       7.719   4.851  26.375  0.00  0.00    -0.286 OA
ENDBRANCH 151 152
ENDBRANCH 148 151
ENDBRANCH 146 147
ENDBRANCH 144 146
ENDBRANCH 141 142
BRANCH 141 154
ATOM    154  CB  SER A   8       2.916   9.592  23.568  0.00  0.00    +0.166 C 
BRANCH 154 155
ATOM    155  OG  SER A   8       3.180  10.715  22.740  0.00  0.00    -0.380 OA
ATOM    156  H   SER A   8       2.420  10.853  22.120  0.00  0.00    +0.211 HD
ENDBRANCH 154 155
ENDBRANCH 141 154
ENDBRANCH 139 141
ENDBRANCH 136 137
BRANCH 136 157
ATOM    157  CB  ASP A   7       4.168  10.484  28.928  0.00  0.00    +0.143 C 
BRANCH 157 158
ATOM    158  CG  ASP A   7       4.133  11.333  30.181  0.00  0.00    +0.367 C 
ATOM    159  OD2 ASP A   7       3.038  11.445  30.797  0.00  0.00    -0.246 OA
ATOM    160  OD1 ASP A   7       5.200  11.839  30.564  0.00  0.00    -0.246 OA
ENDBRANCH 157 158
ENDBRANCH 136 157
ENDBRANCH 133 136
ENDBRANCH 131 132
ENDBRANCH 129 131
ENDBRANCH 126 127
BRANCH 126 161
ATOM    161  CB  GLN A   5      -0.494  15.187  25.919  0.00  0.00    +0.039 C 
BRANCH 161 162
ATOM    162  CG  GLN A   5       0.184  16.227  25.021  0.00  0.00    +0.087 C 
BRANCH 162 163
ATOM    163  CD  GLN A   5       0.330  15.777  23.601  0.00  0.00    +0.219 C 
ATOM    164  OE1 GLN A   5       1.439  15.771  23.054  0.00  0.00    -0.275 OA
ATOM    165  NE2 GLN A   5      -0.788  15.417  22.970  0.00  0.00    -0.329 N 
ATOM    166 HE21 GLN A   5      -1.698  15.438  23.472  0.00  0.00    +0.145 HD
ATOM    167 HE22 GLN A   5      -0.750  15.115  21.976  0.00  0.00    +0.145 HD
ENDBRANCH 162 163
ENDBRANCH 161 162
ENDBRANCH 126 161
ENDBRANCH 124 126
ENDBRANCH  94 122
ENDBRANCH  93  94
ENDBRANCH  92  93
ENDBRANCH  91  92
ENDBRANCH  90  91
ENDBRANCH   1  90
TORSDOF 71
REMARK  Name = ../refined-set-2016/2jkh/2jkh_pocket.pdb
REMARK  225 active torsions:
REMARK  status: ('A' for Active; 'I' for Inactive)
REMARK    1  A    between atoms: _1  and  _5
REMARK    2  A    between atoms: _5  and  _6
REMARK    3  A    between atoms: _5  and  _8
REMARK    4  A    between atoms: _8  and  _9
REMARK    5  A    between atoms: _12  and  _14
REMARK    6  A    between atoms: _14  and  _15
REMARK    7  A    between atoms: _14  and  _17
REMARK    8  A    between atoms: _20  and  _22
REMARK    9  A    between atoms: _22  and  _23
REMARK   10  A    between atoms: _22  and  _25
REMARK   11  A    between atoms: _25  and  _26
REMARK   12  A    between atoms: _32  and  _34
REMARK   13  A    between atoms: _34  and  _35
REMARK   14  A    between atoms: _34  and  _37
REMARK   15  A    between atoms: _37  and  _38
REMARK   16  A    between atoms: _43  and  _45
REMARK   17  A    between atoms: _45  and  _46
REMARK   18  A    between atoms: _45  and  _48
REMARK   19  A    between atoms: _48  and  _49
REMARK   20  A    between atoms: _49  and  _50
REMARK   21  A    between atoms: _55  and  _57
REMARK   22  A    between atoms: _57  and  _58
REMARK   23  A    between atoms: _57  and  _60
REMARK   24  A    between atoms: _60  and  _61
REMARK   25  A    between atoms: _67  and  _69
REMARK   26  A    between atoms: _69  and  _70
REMARK   27  A    between atoms: _69  and  _72
REMARK   28  A    between atoms: _72  and  _73
REMARK   29  A    between atoms: _76  and  _78
REMARK   30  A    between atoms: _78  and  _79
REMARK   31  A    between atoms: _78  and  _81
REMARK   32  A    between atoms: _81  and  _82
REMARK   33  A    between atoms: _82  and  _83
REMARK   34  A    between atoms: _83  and  _84
REMARK   35  A    between atoms: _84  and  _85
REMARK   36  A    between atoms: _89  and  _91
REMARK   37  A    between atoms: _91  and  _92
REMARK   38  A    between atoms: _91  and  _94
REMARK   39  A    between atoms: _94  and  _95
REMARK   40  A    between atoms: _95  and  _96
REMARK   41  A    between atoms: _99  and  _101
REMARK   42  A    between atoms: _101  and  _102
REMARK   43  A    between atoms: _101  and  _104
REMARK   44  A    between atoms: _104  and  _105
REMARK   45  A    between atoms: _108  and  _110
REMARK   46  A    between atoms: _110  and  _111
REMARK   47  A    between atoms: _110  and  _113
REMARK   48  A    between atoms: _113  and  _114
REMARK   49  A    between atoms: _119  and  _120
REMARK   50  A    between atoms: _122  and  _124
REMARK   51  A    between atoms: _124  and  _125
REMARK   52  A    between atoms: _124  and  _127
REMARK   53  A    between atoms: _127  and  _128
REMARK   54  A    between atoms: _131  and  _133
REMARK   55  A    between atoms: _133  and  _134
REMARK   56  A    between atoms: _133  and  _136
REMARK   57  A    between atoms: _136  and  _137
REMARK   58  A    between atoms: _140  and  _142
REMARK   59  A    between atoms: _142  and  _143
REMARK   60  A    between atoms: _142  and  _145
REMARK   61  A    between atoms: _148  and  _150
REMARK   62  A    between atoms: _150  and  _151
REMARK   63  A    between atoms: _150  and  _153
REMARK   64  A    between atoms: _153  and  _154
REMARK   65  A    between atoms: _154  and  _155
REMARK   66  A    between atoms: _155  and  _156
REMARK   67  A    between atoms: _165  and  _167
REMARK   68  A    between atoms: _167  and  _168
REMARK   69  A    between atoms: _167  and  _170
REMARK   70  A    between atoms: _170  and  _171
REMARK   71  A    between atoms: _176  and  _178
REMARK   72  A    between atoms: _178  and  _179
REMARK   73  A    between atoms: _178  and  _181
REMARK   74  A    between atoms: _181  and  _182
REMARK   75  A    between atoms: _182  and  _183
REMARK   76  A    between atoms: _186  and  _188
REMARK   77  A    between atoms: _188  and  _189
REMARK   78  A    between atoms: _188  and  _191
REMARK   79  A    between atoms: _191  and  _192
REMARK   80  A    between atoms: _192  and  _193
REMARK   81  A    between atoms: _193  and  _194
REMARK   82  A    between atoms: _194  and  _195
REMARK   83  A    between atoms: _199  and  _201
REMARK   84  A    between atoms: _201  and  _202
REMARK   85  A    between atoms: _204  and  _206
REMARK   86  A    between atoms: _206  and  _207
REMARK   87  A    between atoms: _206  and  _209
REMARK   88  A    between atoms: _212  and  _214
REMARK   89  A    between atoms: _214  and  _215
REMARK   90  A    between atoms: _214  and  _217
REMARK   91  A    between atoms: _217  and  _218
REMARK   92  A    between atoms: _220  and  _222
REMARK   93  A    between atoms: _222  and  _223
REMARK   94  A    between atoms: _222  and  _225
REMARK   95  A    between atoms: _225  and  _226
REMARK   96  A    between atoms: _228  and  _230
REMARK   97  A    between atoms: _230  and  _231
REMARK   98  A    between atoms: _230  and  _233
REMARK   99  A    between atoms: _233  and  _234
REMARK  100  A    between atoms: _240  and  _242
REMARK  101  A    between atoms: _242  and  _243
REMARK  102  A    between atoms: _242  and  _245
REMARK  103  A    between atoms: _245  and  _246
REMARK  104  A    between atoms: _249  and  _251
REMARK  105  A    between atoms: _251  and  _252
REMARK  106  A    between atoms: _251  and  _254
REMARK  107  A    between atoms: _254  and  _255
REMARK  108  A    between atoms: _258  and  _260
REMARK  109  A    between atoms: _260  and  _261
REMARK  110  A    between atoms: _260  and  _263
REMARK  111  A    between atoms: _263  and  _264
REMARK  112  A    between atoms: _264  and  _265
REMARK  113  A    between atoms: _267  and  _269
REMARK  114  A    between atoms: _269  and  _270
REMARK  115  A    between atoms: _269  and  _272
REMARK  116  A    between atoms: _272  and  _273
REMARK  117  A    between atoms: _279  and  _281
REMARK  118  A    between atoms: _281  and  _282
REMARK  119  A    between atoms: _281  and  _284
REMARK  120  A    between atoms: _286  and  _288
REMARK  121  A    between atoms: _288  and  _289
REMARK  122  A    between atoms: _292  and  _294
REMARK  123  A    between atoms: _294  and  _295
REMARK  124  A    between atoms: _297  and  _299
REMARK  125  A    between atoms: _299  and  _300
REMARK  126  A    between atoms: _299  and  _302
REMARK  127  A    between atoms: _302  and  _303
REMARK  128  A    between atoms: _303  and  _304
REMARK  129  A    between atoms: _307  and  _309
REMARK  130  A    between atoms: _309  and  _310
REMARK  131  A    between atoms: _309  and  _312
REMARK  132  A    between atoms: _312  and  _313
REMARK  133  A    between atoms: _316  and  _318
REMARK  134  A    between atoms: _318  and  _319
REMARK  135  A    between atoms: _322  and  _324
REMARK  136  A    between atoms: _324  and  _325
REMARK  137  A    between atoms: _324  and  _327
REMARK  138  A    between atoms: _327  and  _328
REMARK  139  A    between atoms: _328  and  _451
REMARK  140  A    between atoms: _329  and  _331
REMARK  141  A    between atoms: _331  and  _332
REMARK  142  A    between atoms: _331  and  _334
REMARK  143  A    between atoms: _334  and  _335
REMARK  144  A    between atoms: _335  and  _336
REMARK  145  A    between atoms: _341  and  _343
REMARK  146  A    between atoms: _343  and  _344
REMARK  147  A    between atoms: _346  and  _348
REMARK  148  A    between atoms: _348  and  _349
REMARK  149  A    between atoms: _348  and  _351
REMARK  150  A    between atoms: _351  and  _352
REMARK  151  A    between atoms: _355  and  _357
REMARK  152  A    between atoms: _357  and  _358
REMARK  153  A    between atoms: _357  and  _360
REMARK  154  A    between atoms: _360  and  _361
REMARK  155  A    between atoms: _363  and  _365
REMARK  156  A    between atoms: _365  and  _366
REMARK  157  A    between atoms: _368  and  _370
REMARK  158  A    between atoms: _370  and  _371
REMARK  159  A    between atoms: _373  and  _375
REMARK  160  A    between atoms: _375  and  _376
REMARK  161  A    between atoms: _375  and  _378
REMARK  162  A    between atoms: _378  and  _379
REMARK  163  A    between atoms: _384  and  _386
REMARK  164  A    between atoms: _386  and  _387
REMARK  165  A    between atoms: _386  and  _389
REMARK  166  A    between atoms: _389  and  _390
REMARK  167  A    between atoms: _393  and  _395
REMARK  168  A    between atoms: _395  and  _396
REMARK  169  A    between atoms: _395  and  _398
REMARK  170  A    between atoms: _401  and  _403
REMARK  171  A    between atoms: _403  and  _404
REMARK  172  A    between atoms: _403  and  _406
REMARK  173  A    between atoms: _406  and  _407
REMARK  174  A    between atoms: _409  and  _411
REMARK  175  A    between atoms: _411  and  _412
REMARK  176  A    between atoms: _411  and  _414
REMARK  177  A    between atoms: _414  and  _415
REMARK  178  A    between atoms: _425  and  _427
REMARK  179  A    between atoms: _427  and  _428
REMARK  180  A    between atoms: _430  and  _432
REMARK  181  A    between atoms: _432  and  _433
REMARK  182  A    between atoms: _432  and  _435
REMARK  183  A    between atoms: _435  and  _436
REMARK  184  A    between atoms: _436  and  _437
REMARK  185  A    between atoms: _440  and  _442
REMARK  186  A    between atoms: _442  and  _443
REMARK  187  A    between atoms: _445  and  _447
REMARK  188  A    between atoms: _447  and  _448
REMARK  189  A    between atoms: _447  and  _450
REMARK  190  A    between atoms: _450  and  _451
REMARK  191  A    between atoms: _452  and  _454
REMARK  192  A    between atoms: _454  and  _455
REMARK  193  A    between atoms: _458  and  _460
REMARK  194  A    between atoms: _460  and  _461
REMARK  195  A    between atoms: _460  and  _463
REMARK  196  A    between atoms: _463  and  _464
REMARK  197  A    between atoms: _464  and  _465
REMARK  198  A    between atoms: _465  and  _466
REMARK  199  A    between atoms: _475  and  _477
REMARK  200  A    between atoms: _477  and  _478
REMARK  201  A    between atoms: _477  and  _480
REMARK  202  A    between atoms: _480  and  _481
REMARK  203  A    between atoms: _481  and  _482
REMARK  204  A    between atoms: _482  and  _483
REMARK  205  A    between atoms: _483  and  _484
REMARK  206  A    between atoms: _488  and  _490
REMARK  207  A    between atoms: _490  and  _491
REMARK  208  A    between atoms: _490  and  _493
REMARK  209  A    between atoms: _493  and  _494
REMARK  210  A    between atoms: _499  and  _500
REMARK  211  A    between atoms: _502  and  _504
REMARK  212  A    between atoms: _504  and  _505
REMARK  213  A    between atoms: _507  and  _509
REMARK  214  A    between atoms: _509  and  _510
REMARK  215  A    between atoms: _509  and  _512
REMARK  216  A    between atoms: _512  and  _513
REMARK  217  A    between atoms: _516  and  _518
REMARK  218  A    between atoms: _518  and  _519
REMARK  219  A    between atoms: _518  and  _521
REMARK  220  A    between atoms: _521  and  _522
REMARK  221  A    between atoms: _527  and  _528
REMARK  222  A    between atoms: _530  and  _532
REMARK  223  A    between atoms: _532  and  _533
REMARK  224  A    between atoms: _532  and  _535
REMARK  225  A    between atoms: _535  and  _536
REMARK                            x       y       z     vdW  Elec       q    Type
REMARK                         _______ _______ _______ _____ _____    ______ ____
ROOT
ATOM      1  CB  HIS A   1       5.870   0.916  29.401  0.00  0.00    +0.072 C 
ENDROOT
BRANCH   1   2
ATOM      2  CG  HIS A   1       5.110  -0.045  30.255  0.00  0.00    +0.082 A 
ATOM      3  CD2 HIS A   1       3.974   0.116  30.967  0.00  0.00    +0.115 A 
ATOM      4  NE2 HIS A   1       3.670  -1.103  31.520  0.00  0.00    -0.221 NA
ATOM      5  CE1 HIS A   1       4.620  -1.963  31.200  0.00  0.00    +0.199 A 
ATOM      6  ND1 HIS A   1       5.487  -1.362  30.407  0.00  0.00    -0.227 NA
ENDBRANCH   1   2
BRANCH   1   7
ATOM      7  CA  HIS A   1       7.193   1.387  29.987  0.00  0.00    +0.139 C 
BRANCH   7   8
ATOM      8  N   HIS A   1       7.905   2.224  29.029  0.00  0.00    -0.239 NA
ATOM      9  H   HIS A   1       8.140   1.820  28.100  0.00  0.00    +0.142 HD
ENDBRANCH   7   8
BRANCH   7  10
ATOM     10  C   HIS A   1       8.134   0.220  30.215  0.00  0.00    +0.224 C 
ATOM     11  O   HIS A   1       8.535  -0.519  29.292  0.00  0.00    -0.287 OA
ENDBRANCH   7  10
ENDBRANCH   1   7
TORSDOF 4
REMARK  Name = ../refined-set-2016/2jkh/2jkh_pocket.pdb
REMARK  225 active torsions:
REMARK  status: ('A' for Active; 'I' for Inactive)
REMARK    1  A    between atoms: _1  and  _5
REMARK    2  A    between atoms: _5  and  _6
REMARK    3  A    between atoms: _5  and  _8
REMARK    4  A    between atoms: _8  and  _9
REMARK    5  A    between atoms: _12  and  _14
REMARK    6  A    between atoms: _14  and  _15
REMARK    7  A    between atoms: _14  and  _17
REMARK    8  A    between atoms: _20  and  _22
REMARK    9  A    between atoms: _22  and  _23
REMARK   10  A    between atoms: _22  and  _25
REMARK   11  A    between atoms: _25  and  _26
REMARK   12  A    between atoms: _32  and  _34
REMARK   13  A    between atoms: _34  and  _35
REMARK   14  A    between atoms: _34  and  _37
REMARK   15  A    between atoms: _37  and  _38
REMARK   16  A    between atoms: _43  and  _45
REMARK   17  A    between atoms: _45  and  _46
REMARK   18  A    between atoms: _45  and  _48
REMARK   19  A    between atoms: _48  and  _49
REMARK   20  A    between atoms: _49  and  _50
REMARK   21  A    between atoms: _55  and  _57
REMARK   22  A    between atoms: _57  and  _58
REMARK   23  A    between atoms: _57  and  _60
REMARK   24  A    between atoms: _60  and  _61
REMARK   25  A    between atoms: _67  and  _69
REMARK   26  A    between atoms: _69  and  _70
REMARK   27  A    between atoms: _69  and  _72
REMARK   28  A    between atoms: _72  and  _73
REMARK   29  A    between atoms: _76  and  _78
REMARK   30  A    between atoms: _78  and  _79
REMARK   31  A    between atoms: _78  and  _81
REMARK   32  A    between atoms: _81  and  _82
REMARK   33  A    between atoms: _82  and  _83
REMARK   34  A    between atoms: _83  and  _84
REMARK   35  A    between atoms: _84  and  _85
REMARK   36  A    between atoms: _89  and  _91
REMARK   37  A    between atoms: _91  and  _92
REMARK   38  A    between atoms: _91  and  _94
REMARK   39  A    between atoms: _94  and  _95
REMARK   40  A    between atoms: _95  and  _96
REMARK   41  A    between atoms: _99  and  _101
REMARK   42  A    between atoms: _101  and  _102
REMARK   43  A    between atoms: _101  and  _104
REMARK   44  A    between atoms: _104  and  _105
REMARK   45  A    between atoms: _108  and  _110
REMARK   46  A    between atoms: _110  and  _111
REMARK   47  A    between atoms: _110  and  _113
REMARK   48  A    between atoms: _113  and  _114
REMARK   49  A    between atoms: _119  and  _120
REMARK   50  A    between atoms: _122  and  _124
REMARK   51  A    between atoms: _124  and  _125
REMARK   52  A    between atoms: _124  and  _127
REMARK   53  A    between atoms: _127  and  _128
REMARK   54  A    between atoms: _131  and  _133
REMARK   55  A    between atoms: _133  and  _134
REMARK   56  A    between atoms: _133  and  _136
REMARK   57  A    between atoms: _136  and  _137
REMARK   58  A    between atoms: _140  and  _142
REMARK   59  A    between atoms: _142  and  _143
REMARK   60  A    between atoms: _142  and  _145
REMARK   61  A    between atoms: _148  and  _150
REMARK   62  A    between atoms: _150  and  _151
REMARK   63  A    between atoms: _150  and  _153
REMARK   64  A    between atoms: _153  and  _154
REMARK   65  A    between atoms: _154  and  _155
REMARK   66  A    between atoms: _155  and  _156
REMARK   67  A    between atoms: _165  and  _167
REMARK   68  A    between atoms: _167  and  _168
REMARK   69  A    between atoms: _167  and  _170
REMARK   70  A    between atoms: _170  and  _171
REMARK   71  A    between atoms: _176  and  _178
REMARK   72  A    between atoms: _178  and  _179
REMARK   73  A    between atoms: _178  and  _181
REMARK   74  A    between atoms: _181  and  _182
REMARK   75  A    between atoms: _182  and  _183
REMARK   76  A    between atoms: _186  and  _188
REMARK   77  A    between atoms: _188  and  _189
REMARK   78  A    between atoms: _188  and  _191
REMARK   79  A    between atoms: _191  and  _192
REMARK   80  A    between atoms: _192  and  _193
REMARK   81  A    between atoms: _193  and  _194
REMARK   82  A    between atoms: _194  and  _195
REMARK   83  A    between atoms: _199  and  _201
REMARK   84  A    between atoms: _201  and  _202
REMARK   85  A    between atoms: _204  and  _206
REMARK   86  A    between atoms: _206  and  _207
REMARK   87  A    between atoms: _206  and  _209
REMARK   88  A    between atoms: _212  and  _214
REMARK   89  A    between atoms: _214  and  _215
REMARK   90  A    between atoms: _214  and  _217
REMARK   91  A    between atoms: _217  and  _218
REMARK   92  A    between atoms: _220  and  _222
REMARK   93  A    between atoms: _222  and  _223
REMARK   94  A    between atoms: _222  and  _225
REMARK   95  A    between atoms: _225  and  _226
REMARK   96  A    between atoms: _228  and  _230
REMARK   97  A    between atoms: _230  and  _231
REMARK   98  A    between atoms: _230  and  _233
REMARK   99  A    between atoms: _233  and  _234
REMARK  100  A    between atoms: _240  and  _242
REMARK  101  A    between atoms: _242  and  _243
REMARK  102  A    between atoms: _242  and  _245
REMARK  103  A    between atoms: _245  and  _246
REMARK  104  A    between atoms: _249  and  _251
REMARK  105  A    between atoms: _251  and  _252
REMARK  106  A    between atoms: _251  and  _254
REMARK  107  A    between atoms: _254  and  _255
REMARK  108  A    between atoms: _258  and  _260
REMARK  109  A    between atoms: _260  and  _261
REMARK  110  A    between atoms: _260  and  _263
REMARK  111  A    between atoms: _263  and  _264
REMARK  112  A    between atoms: _264  and  _265
REMARK  113  A    between atoms: _267  and  _269
REMARK  114  A    between atoms: _269  and  _270
REMARK  115  A    between atoms: _269  and  _272
REMARK  116  A    between atoms: _272  and  _273
REMARK  117  A    between atoms: _279  and  _281
REMARK  118  A    between atoms: _281  and  _282
REMARK  119  A    between atoms: _281  and  _284
REMARK  120  A    between atoms: _286  and  _288
REMARK  121  A    between atoms: _288  and  _289
REMARK  122  A    between atoms: _292  and  _294
REMARK  123  A    between atoms: _294  and  _295
REMARK  124  A    between atoms: _297  and  _299
REMARK  125  A    between atoms: _299  and  _300
REMARK  126  A    between atoms: _299  and  _302
REMARK  127  A    between atoms: _302  and  _303
REMARK  128  A    between atoms: _303  and  _304
REMARK  129  A    between atoms: _307  and  _309
REMARK  130  A    between atoms: _309  and  _310
REMARK  131  A    between atoms: _309  and  _312
REMARK  132  A    between atoms: _312  and  _313
REMARK  133  A    between atoms: _316  and  _318
REMARK  134  A    between atoms: _318  and  _319
REMARK  135  A    between atoms: _322  and  _324
REMARK  136  A    between atoms: _324  and  _325
REMARK  137  A    between atoms: _324  and  _327
REMARK  138  A    between atoms: _327  and  _328
REMARK  139  A    between atoms: _328  and  _451
REMARK  140  A    between atoms: _329  and  _331
REMARK  141  A    between atoms: _331  and  _332
REMARK  142  A    between atoms: _331  and  _334
REMARK  143  A    between atoms: _334  and  _335
REMARK  144  A    between atoms: _335  and  _336
REMARK  145  A    between atoms: _341  and  _343
REMARK  146  A    between atoms: _343  and  _344
REMARK  147  A    between atoms: _346  and  _348
REMARK  148  A    between atoms: _348  and  _349
REMARK  149  A    between atoms: _348  and  _351
REMARK  150  A    between atoms: _351  and  _352
REMARK  151  A    between atoms: _355  and  _357
REMARK  152  A    between atoms: _357  and  _358
REMARK  153  A    between atoms: _357  and  _360
REMARK  154  A    between atoms: _360  and  _361
REMARK  155  A    between atoms: _363  and  _365
REMARK  156  A    between atoms: _365  and  _366
REMARK  157  A    between atoms: _368  and  _370
REMARK  158  A    between atoms: _370  and  _371
REMARK  159  A    between atoms: _373  and  _375
REMARK  160  A    between atoms: _375  and  _376
REMARK  161  A    between atoms: _375  and  _378
REMARK  162  A    between atoms: _378  and  _379
REMARK  163  A    between atoms: _384  and  _386
REMARK  164  A    between atoms: _386  and  _387
REMARK  165  A    between atoms: _386  and  _389
REMARK  166  A    between atoms: _389  and  _390
REMARK  167  A    between atoms: _393  and  _395
REMARK  168  A    between atoms: _395  and  _396
REMARK  169  A    between atoms: _395  and  _398
REMARK  170  A    between atoms: _401  and  _403
REMARK  171  A    between atoms: _403  and  _404
REMARK  172  A    between atoms: _403  and  _406
REMARK  173  A    between atoms: _406  and  _407
REMARK  174  A    between atoms: _409  and  _411
REMARK  175  A    between atoms: _411  and  _412
REMARK  176  A    between atoms: _411  and  _414
REMARK  177  A    between atoms: _414  and  _415
REMARK  178  A    between atoms: _425  and  _427
REMARK  179  A    between atoms: _427  and  _428
REMARK  180  A    between atoms: _430  and  _432
REMARK  181  A    between atoms: _432  and  _433
REMARK  182  A    between atoms: _432  and  _435
REMARK  183  A    between atoms: _435  and  _436
REMARK  184  A    between atoms: _436  and  _437
REMARK  185  A    between atoms: _440  and  _442
REMARK  186  A    between atoms: _442  and  _443
REMARK  187  A    between atoms: _445  and  _447
REMARK  188  A    between atoms: _447  and  _448
REMARK  189  A    between atoms: _447  and  _450
REMARK  190  A    between atoms: _450  and  _451
REMARK  191  A    between atoms: _452  and  _454
REMARK  192  A    between atoms: _454  and  _455
REMARK  193  A    between atoms: _458  and  _460
REMARK  194  A    between atoms: _460  and  _461
REMARK  195  A    between atoms: _460  and  _463
REMARK  196  A    between atoms: _463  and  _464
REMARK  197  A    between atoms: _464  and  _465
REMARK  198  A    between atoms: _465  and  _466
REMARK  199  A    between atoms: _475  and  _477
REMARK  200  A    between atoms: _477  and  _478
REMARK  201  A    between atoms: _477  and  _480
REMARK  202  A    between atoms: _480  and  _481
REMARK  203  A    between atoms: _481  and  _482
REMARK  204  A    between atoms: _482  and  _483
REMARK  205  A    between atoms: _483  and  _484
REMARK  206  A    between atoms: _488  and  _490
REMARK  207  A    between atoms: _490  and  _491
REMARK  208  A    between atoms: _490  and  _493
REMARK  209  A    between atoms: _493  and  _494
REMARK  210  A    between atoms: _499  and  _500
REMARK  211  A    between atoms: _502  and  _504
REMARK  212  A    between atoms: _504  and  _505
REMARK  213  A    between atoms: _507  and  _509
REMARK  214  A    between atoms: _509  and  _510
REMARK  215  A    between atoms: _509  and  _512
REMARK  216  A    between atoms: _512  and  _513
REMARK  217  A    between atoms: _516  and  _518
REMARK  218  A    between atoms: _518  and  _519
REMARK  219  A    between atoms: _518  and  _521
REMARK  220  A    between atoms: _521  and  _522
REMARK  221  A    between atoms: _527  and  _528
REMARK  222  A    between atoms: _530  and  _532
REMARK  223  A    between atoms: _532  and  _533
REMARK  224  A    between atoms: _532  and  _535
REMARK  225  A    between atoms: _535  and  _536
REMARK                            x       y       z     vdW  Elec       q    Type
REMARK                         _______ _______ _______ _____ _____    ______ ____
ROOT
ATOM      1  C   GLY A   3      -3.081   2.958  28.069  0.00  0.00    +0.243 C 
ATOM      2  O   GLY A   3      -3.133   1.779  28.443  0.00  0.00    -0.273 OA
ATOM      3  N   ILE A   4      -2.781   3.325  26.808  0.00  0.00    -0.297 N 
ATOM      4  H   ILE A   4      -2.745   4.338  26.576  0.00  0.00    +0.150 HD
ENDROOT
BRANCH   3   5
ATOM      5  CA  ILE A   4      -2.503   2.348  25.752  0.00  0.00    +0.149 C 
BRANCH   5   6
ATOM      6  C   ILE A   4      -1.027   2.389  25.335  0.00  0.00    +0.241 C 
ATOM      7  N   TYR A   5      -0.427   1.217  25.314  0.00  0.00    -0.297 N 
ATOM      8  H   TYR A   5      -1.001   0.363  25.466  0.00  0.00    +0.150 HD
ATOM      9  O   ILE A   4      -0.454   3.467  25.096  0.00  0.00    -0.273 OA
BRANCH   7  10
ATOM     10  CA  TYR A   5       1.003   1.063  25.088  0.00  0.00    +0.153 C 
BRANCH  10  11
ATOM     11  C   TYR A   5       1.295   0.155  23.926  0.00  0.00    +0.241 C 
ATOM     12  O   TYR A   5       0.586  -0.847  23.726  0.00  0.00    -0.273 OA
ATOM     13  N   THR A   6       2.356   0.431  23.186  0.00  0.00    -0.296 N 
ATOM     14  H   THR A   6       2.865   1.324  23.344  0.00  0.00    +0.150 HD
BRANCH  13  15
ATOM     15  CA  THR A   6       2.828  -0.482  22.158  0.00  0.00    +0.164 C 
BRANCH  15  16
ATOM     16  C   THR A   6       3.389  -1.712  22.870  0.00  0.00    +0.229 C 
ATOM     17  O   THR A   6       4.210  -1.569  23.803  0.00  0.00    -0.286 OA
ENDBRANCH  15  16
BRANCH  15  18
ATOM     18  CB  THR A   6       3.930   0.161  21.328  0.00  0.00    +0.136 C 
ATOM     19  CG2 THR A   6       4.328  -0.770  20.162  0.00  0.00    +0.034 C 
BRANCH  18  20
ATOM     20  OG1 THR A   6       3.443   1.410  20.851  0.00  0.00    -0.382 OA
ATOM     21  HG1 THR A   6       4.143   1.850  20.306  0.00  0.00    +0.210 HD
ENDBRANCH  18  20
ENDBRANCH  15  18
ENDBRANCH  13  15
ENDBRANCH  10  11
BRANCH  10  22
ATOM     22  CB  TYR A   5       1.650   0.456  26.355  0.00  0.00    +0.055 C 
BRANCH  22  23
ATOM     23  CG  TYR A   5       1.530   1.352  27.566  0.00  0.00    -0.020 A 
ATOM     24  CD2 TYR A   5       0.347   1.458  28.277  0.00  0.00    -0.001 A 
ATOM     25  CE2 TYR A   5       0.227   2.342  29.378  0.00  0.00    +0.036 A 
ATOM     26  CZ  TYR A   5       1.312   3.111  29.739  0.00  0.00    +0.134 A 
ATOM     27  CE1 TYR A   5       2.504   3.032  29.030  0.00  0.00    +0.036 A 
ATOM     28  CD1 TYR A   5       2.592   2.156  27.943  0.00  0.00    -0.001 A 
BRANCH  26  29
ATOM     29  OH  TYR A   5       1.243   3.989  30.815  0.00  0.00    -0.506 OA
ATOM     30  HH  TYR A   5       0.532   4.658  30.649  0.00  0.00    +0.292 HD
ENDBRANCH  26  29
ENDBRANCH  22  23
ENDBRANCH  10  22
ENDBRANCH   7  10
ENDBRANCH   5   6
BRANCH   5  31
ATOM     31  CB  ILE A   4      -3.421   2.518  24.492  0.00  0.00    +0.027 C 
ATOM     32  CG2 ILE A   4      -3.304   1.292  23.604  0.00  0.00    +0.002 C 
BRANCH  31  33
ATOM     33  CG1 ILE A   4      -4.888   2.819  24.894  0.00  0.00    +0.002 C 
ATOM     34  CD1 ILE A   4      -5.601   1.756  25.699  0.00  0.00    +0.000 C 
ENDBRANCH  31  33
ENDBRANCH   5  31
ENDBRANCH   3   5
BRANCH   1  35
ATOM     35  CA  GLY A   3      -3.340   4.076  29.077  0.00  0.00    +0.176 C 
BRANCH  35  37
ATOM     36  C   TYR A   2      -5.685   3.749  29.590  0.00  0.00    +0.241 C 
ATOM     37  N   GLY A   3      -4.413   3.641  29.960  0.00  0.00    -0.295 N 
ATOM     38  H   GLY A   3      -4.181   3.241  30.892  0.00  0.00    +0.150 HD
ATOM     39  O   TYR A   2      -6.020   4.367  28.583  0.00  0.00    -0.273 OA
BRANCH  36  40
ATOM     40  CA  TYR A   2      -6.713   3.098  30.484  0.00  0.00    +0.153 C 
BRANCH  40  43
ATOM     41  C   LYS A   1      -8.883   4.208  30.945  0.00  0.00    +0.238 C 
ATOM     42  O   LYS A   1      -8.576   4.534  32.099  0.00  0.00    -0.274 OA
ATOM     43  N   TYR A   2      -8.071   3.563  30.107  0.00  0.00    -0.297 N 
ATOM     44  H   TYR A   2      -8.406   3.376  29.140  0.00  0.00    +0.150 HD
BRANCH  41  45
ATOM     45  CA  LYS A   1     -10.239   4.569  30.351  0.00  0.00    +0.145 C 
BRANCH  45  46
ATOM     46  N   LYS A   1     -11.250   4.655  31.424  0.00  0.00    -0.238 NA
ATOM     47  H   LYS A   1     -11.094   5.333  32.197  0.00  0.00    +0.142 HD
ENDBRANCH  45  46
BRANCH  45  48
ATOM     48  CB  LYS A   1     -10.116   5.882  29.573  0.00  0.00    +0.026 C 
BRANCH  48  49
ATOM     49  CG  LYS A   1     -11.418   6.365  28.925  0.00  0.00    -0.000 C 
BRANCH  49  50
ATOM     50  CD  LYS A   1     -11.799   5.504  27.730  0.00  0.00    -0.024 C 
BRANCH  50  51
ATOM     51  CE  LYS A   1     -13.141   5.964  27.150  0.00  0.00    -0.086 C 
BRANCH  51  52
ATOM     52  NZ  LYS A   1     -13.582   5.115  26.012  0.00  0.00    +0.380 N 
ATOM     53  HZ1 LYS A   1     -13.689   4.132  26.335  0.00  0.00    -0.089 HD
ATOM     54  HZ2 LYS A   1     -14.493   5.464  25.653  0.00  0.00    -0.089 HD
ATOM     55  HZ3 LYS A   1     -12.871   5.156  25.254  0.00  0.00    -0.089 HD
ENDBRANCH  51  52
ENDBRANCH  50  51
ENDBRANCH  49  50
ENDBRANCH  48  49
ENDBRANCH  45  48
ENDBRANCH  41  45
ENDBRANCH  40  43
BRANCH  40  56
ATOM     56  CB  TYR A   2      -6.625   1.589  30.345  0.00  0.00    +0.055 C 
BRANCH  56  57
ATOM     57  CG  TYR A   2      -7.601   0.883  31.251  0.00  0.00    -0.020 A 
ATOM     58  CD2 TYR A   2      -7.373   0.840  32.629  0.00  0.00    -0.001 A 
ATOM     59  CE2 TYR A   2      -8.265   0.221  33.496  0.00  0.00    +0.036 A 
ATOM     60  CZ  TYR A   2      -9.389  -0.371  32.980  0.00  0.00    +0.134 A 
ATOM     61  CE1 TYR A   2      -9.672  -0.337  31.628  0.00  0.00    +0.036 A 
ATOM     62  CD1 TYR A   2      -8.759   0.275  30.748  0.00  0.00    -0.001 A 
BRANCH  60  63
ATOM     63  OH  TYR A   2     -10.247  -0.973  33.862  0.00  0.00    -0.506 OA
ATOM     64  HH  TYR A   2     -10.349  -1.928  33.622  0.00  0.00    +0.292 HD
ENDBRANCH  60  63
ENDBRANCH  56  57
ENDBRANCH  40  56
ENDBRANCH  36  40
ENDBRANCH  35  37
ENDBRANCH   1  35
TORSDOF 27
REMARK  Name = ../refined-set-2016/2jkh/2jkh_pocket.pdb
REMARK  225 active torsions:
REMARK  status: ('A' for Active; 'I' for Inactive)
REMARK    1  A    between atoms: _1  and  _5
REMARK    2  A    between atoms: _5  and  _6
REMARK    3  A    between atoms: _5  and  _8
REMARK    4  A    between atoms: _8  and  _9
REMARK    5  A    between atoms: _12  and  _14
REMARK    6  A    between atoms: _14  and  _15
REMARK    7  A    between atoms: _14  and  _17
REMARK    8  A    between atoms: _20  and  _22
REMARK    9  A    between atoms: _22  and  _23
REMARK   10  A    between atoms: _22  and  _25
REMARK   11  A    between atoms: _25  and  _26
REMARK   12  A    between atoms: _32  and  _34
REMARK   13  A    between atoms: _34  and  _35
REMARK   14  A    between atoms: _34  and  _37
REMARK   15  A    between atoms: _37  and  _38
REMARK   16  A    between atoms: _43  and  _45
REMARK   17  A    between atoms: _45  and  _46
REMARK   18  A    between atoms: _45  and  _48
REMARK   19  A    between atoms: _48  and  _49
REMARK   20  A    between atoms: _49  and  _50
REMARK   21  A    between atoms: _55  and  _57
REMARK   22  A    between atoms: _57  and  _58
REMARK   23  A    between atoms: _57  and  _60
REMARK   24  A    between atoms: _60  and  _61
REMARK   25  A    between atoms: _67  and  _69
REMARK   26  A    between atoms: _69  and  _70
REMARK   27  A    between atoms: _69  and  _72
REMARK   28  A    between atoms: _72  and  _73
REMARK   29  A    between atoms: _76  and  _78
REMARK   30  A    between atoms: _78  and  _79
REMARK   31  A    between atoms: _78  and  _81
REMARK   32  A    between atoms: _81  and  _82
REMARK   33  A    between atoms: _82  and  _83
REMARK   34  A    between atoms: _83  and  _84
REMARK   35  A    between atoms: _84  and  _85
REMARK   36  A    between atoms: _89  and  _91
REMARK   37  A    between atoms: _91  and  _92
REMARK   38  A    between atoms: _91  and  _94
REMARK   39  A    between atoms: _94  and  _95
REMARK   40  A    between atoms: _95  and  _96
REMARK   41  A    between atoms: _99  and  _101
REMARK   42  A    between atoms: _101  and  _102
REMARK   43  A    between atoms: _101  and  _104
REMARK   44  A    between atoms: _104  and  _105
REMARK   45  A    between atoms: _108  and  _110
REMARK   46  A    between atoms: _110  and  _111
REMARK   47  A    between atoms: _110  and  _113
REMARK   48  A    between atoms: _113  and  _114
REMARK   49  A    between atoms: _119  and  _120
REMARK   50  A    between atoms: _122  and  _124
REMARK   51  A    between atoms: _124  and  _125
REMARK   52  A    between atoms: _124  and  _127
REMARK   53  A    between atoms: _127  and  _128
REMARK   54  A    between atoms: _131  and  _133
REMARK   55  A    between atoms: _133  and  _134
REMARK   56  A    between atoms: _133  and  _136
REMARK   57  A    between atoms: _136  and  _137
REMARK   58  A    between atoms: _140  and  _142
REMARK   59  A    between atoms: _142  and  _143
REMARK   60  A    between atoms: _142  and  _145
REMARK   61  A    between atoms: _148  and  _150
REMARK   62  A    between atoms: _150  and  _151
REMARK   63  A    between atoms: _150  and  _153
REMARK   64  A    between atoms: _153  and  _154
REMARK   65  A    between atoms: _154  and  _155
REMARK   66  A    between atoms: _155  and  _156
REMARK   67  A    between atoms: _165  and  _167
REMARK   68  A    between atoms: _167  and  _168
REMARK   69  A    between atoms: _167  and  _170
REMARK   70  A    between atoms: _170  and  _171
REMARK   71  A    between atoms: _176  and  _178
REMARK   72  A    between atoms: _178  and  _179
REMARK   73  A    between atoms: _178  and  _181
REMARK   74  A    between atoms: _181  and  _182
REMARK   75  A    between atoms: _182  and  _183
REMARK   76  A    between atoms: _186  and  _188
REMARK   77  A    between atoms: _188  and  _189
REMARK   78  A    between atoms: _188  and  _191
REMARK   79  A    between atoms: _191  and  _192
REMARK   80  A    between atoms: _192  and  _193
REMARK   81  A    between atoms: _193  and  _194
REMARK   82  A    between atoms: _194  and  _195
REMARK   83  A    between atoms: _199  and  _201
REMARK   84  A    between atoms: _201  and  _202
REMARK   85  A    between atoms: _204  and  _206
REMARK   86  A    between atoms: _206  and  _207
REMARK   87  A    between atoms: _206  and  _209
REMARK   88  A    between atoms: _212  and  _214
REMARK   89  A    between atoms: _214  and  _215
REMARK   90  A    between atoms: _214  and  _217
REMARK   91  A    between atoms: _217  and  _218
REMARK   92  A    between atoms: _220  and  _222
REMARK   93  A    between atoms: _222  and  _223
REMARK   94  A    between atoms: _222  and  _225
REMARK   95  A    between atoms: _225  and  _226
REMARK   96  A    between atoms: _228  and  _230
REMARK   97  A    between atoms: _230  and  _231
REMARK   98  A    between atoms: _230  and  _233
REMARK   99  A    between atoms: _233  and  _234
REMARK  100  A    between atoms: _240  and  _242
REMARK  101  A    between atoms: _242  and  _243
REMARK  102  A    between atoms: _242  and  _245
REMARK  103  A    between atoms: _245  and  _246
REMARK  104  A    between atoms: _249  and  _251
REMARK  105  A    between atoms: _251  and  _252
REMARK  106  A    between atoms: _251  and  _254
REMARK  107  A    between atoms: _254  and  _255
REMARK  108  A    between atoms: _258  and  _260
REMARK  109  A    between atoms: _260  and  _261
REMARK  110  A    between atoms: _260  and  _263
REMARK  111  A    between atoms: _263  and  _264
REMARK  112  A    between atoms: _264  and  _265
REMARK  113  A    between atoms: _267  and  _269
REMARK  114  A    between atoms: _269  and  _270
REMARK  115  A    between atoms: _269  and  _272
REMARK  116  A    between atoms: _272  and  _273
REMARK  117  A    between atoms: _279  and  _281
REMARK  118  A    between atoms: _281  and  _282
REMARK  119  A    between atoms: _281  and  _284
REMARK  120  A    between atoms: _286  and  _288
REMARK  121  A    between atoms: _288  and  _289
REMARK  122  A    between atoms: _292  and  _294
REMARK  123  A    between atoms: _294  and  _295
REMARK  124  A    between atoms: _297  and  _299
REMARK  125  A    between atoms: _299  and  _300
REMARK  126  A    between atoms: _299  and  _302
REMARK  127  A    between atoms: _302  and  _303
REMARK  128  A    between atoms: _303  and  _304
REMARK  129  A    between atoms: _307  and  _309
REMARK  130  A    between atoms: _309  and  _310
REMARK  131  A    between atoms: _309  and  _312
REMARK  132  A    between atoms: _312  and  _313
REMARK  133  A    between atoms: _316  and  _318
REMARK  134  A    between atoms: _318  and  _319
REMARK  135  A    between atoms: _322  and  _324
REMARK  136  A    between atoms: _324  and  _325
REMARK  137  A    between atoms: _324  and  _327
REMARK  138  A    between atoms: _327  and  _328
REMARK  139  A    between atoms: _328  and  _451
REMARK  140  A    between atoms: _329  and  _331
REMARK  141  A    between atoms: _331  and  _332
REMARK  142  A    between atoms: _331  and  _334
REMARK  143  A    between atoms: _334  and  _335
REMARK  144  A    between atoms: _335  and  _336
REMARK  145  A    between atoms: _341  and  _343
REMARK  146  A    between atoms: _343  and  _344
REMARK  147  A    between atoms: _346  and  _348
REMARK  148  A    between atoms: _348  and  _349
REMARK  149  A    between atoms: _348  and  _351
REMARK  150  A    between atoms: _351  and  _352
REMARK  151  A    between atoms: _355  and  _357
REMARK  152  A    between atoms: _357  and  _358
REMARK  153  A    between atoms: _357  and  _360
REMARK  154  A    between atoms: _360  and  _361
REMARK  155  A    between atoms: _363  and  _365
REMARK  156  A    between atoms: _365  and  _366
REMARK  157  A    between atoms: _368  and  _370
REMARK  158  A    between atoms: _370  and  _371
REMARK  159  A    between atoms: _373  and  _375
REMARK  160  A    between atoms: _375  and  _376
REMARK  161  A    between atoms: _375  and  _378
REMARK  162  A    between atoms: _378  and  _379
REMARK  163  A    between atoms: _384  and  _386
REMARK  164  A    between atoms: _386  and  _387
REMARK  165  A    between atoms: _386  and  _389
REMARK  166  A    between atoms: _389  and  _390
REMARK  167  A    between atoms: _393  and  _395
REMARK  168  A    between atoms: _395  and  _396
REMARK  169  A    between atoms: _395  and  _398
REMARK  170  A    between atoms: _401  and  _403
REMARK  171  A    between atoms: _403  and  _404
REMARK  172  A    between atoms: _403  and  _406
REMARK  173  A    between atoms: _406  and  _407
REMARK  174  A    between atoms: _409  and  _411
REMARK  175  A    between atoms: _411  and  _412
REMARK  176  A    between atoms: _411  and  _414
REMARK  177  A    between atoms: _414  and  _415
REMARK  178  A    between atoms: _425  and  _427
REMARK  179  A    between atoms: _427  and  _428
REMARK  180  A    between atoms: _430  and  _432
REMARK  181  A    between atoms: _432  and  _433
REMARK  182  A    between atoms: _432  and  _435
REMARK  183  A    between atoms: _435  and  _436
REMARK  184  A    between atoms: _436  and  _437
REMARK  185  A    between atoms: _440  and  _442
REMARK  186  A    between atoms: _442  and  _443
REMARK  187  A    between atoms: _445  and  _447
REMARK  188  A    between atoms: _447  and  _448
REMARK  189  A    between atoms: _447  and  _450
REMARK  190  A    between atoms: _450  and  _451
REMARK  191  A    between atoms: _452  and  _454
REMARK  192  A    between atoms: _454  and  _455
REMARK  193  A    between atoms: _458  and  _460
REMARK  194  A    between atoms: _460  and  _461
REMARK  195  A    between atoms: _460  and  _463
REMARK  196  A    between atoms: _463  and  _464
REMARK  197  A    between atoms: _464  and  _465
REMARK  198  A    between atoms: _465  and  _466
REMARK  199  A    between atoms: _475  and  _477
REMARK  200  A    between atoms: _477  and  _478
REMARK  201  A    between atoms: _477  and  _480
REMARK  202  A    between atoms: _480  and  _481
REMARK  203  A    between atoms: _481  and  _482
REMARK  204  A    between atoms: _482  and  _483
REMARK  205  A    between atoms: _483  and  _484
REMARK  206  A    between atoms: _488  and  _490
REMARK  207  A    between atoms: _490  and  _491
REMARK  208  A    between atoms: _490  and  _493
REMARK  209  A    between atoms: _493  and  _494
REMARK  210  A    between atoms: _499  and  _500
REMARK  211  A    between atoms: _502  and  _504
REMARK  212  A    between atoms: _504  and  _505
REMARK  213  A    between atoms: _507  and  _509
REMARK  214  A    between atoms: _509  and  _510
REMARK  215  A    between atoms: _509  and  _512
REMARK  216  A    between atoms: _512  and  _513
REMARK  217  A    between atoms: _516  and  _518
REMARK  218  A    between atoms: _518  and  _519
REMARK  219  A    between atoms: _518  and  _521
REMARK  220  A    between atoms: _521  and  _522
REMARK  221  A    between atoms: _527  and  _528
REMARK  222  A    between atoms: _530  and  _532
REMARK  223  A    between atoms: _532  and  _533
REMARK  224  A    between atoms: _532  and  _535
REMARK  225  A    between atoms: _535  and  _536
REMARK                            x       y       z     vdW  Elec       q    Type
REMARK                         _______ _______ _______ _____ _____    ______ ____
ROOT
ATOM      1  O   HOH     1       4.093  15.594  20.584  0.00  0.00    +0.000 OA
ENDROOT
TORSDOF 0
REMARK  Name = ../refined-set-2016/2jkh/2jkh_pocket.pdb
REMARK  225 active torsions:
REMARK  status: ('A' for Active; 'I' for Inactive)
REMARK    1  A    between atoms: _1  and  _5
REMARK    2  A    between atoms: _5  and  _6
REMARK    3  A    between atoms: _5  and  _8
REMARK    4  A    between atoms: _8  and  _9
REMARK    5  A    between atoms: _12  and  _14
REMARK    6  A    between atoms: _14  and  _15
REMARK    7  A    between atoms: _14  and  _17
REMARK    8  A    between atoms: _20  and  _22
REMARK    9  A    between atoms: _22  and  _23
REMARK   10  A    between atoms: _22  and  _25
REMARK   11  A    between atoms: _25  and  _26
REMARK   12  A    between atoms: _32  and  _34
REMARK   13  A    between atoms: _34  and  _35
REMARK   14  A    between atoms: _34  and  _37
REMARK   15  A    between atoms: _37  and  _38
REMARK   16  A    between atoms: _43  and  _45
REMARK   17  A    between atoms: _45  and  _46
REMARK   18  A    between atoms: _45  and  _48
REMARK   19  A    between atoms: _48  and  _49
REMARK   20  A    between atoms: _49  and  _50
REMARK   21  A    between atoms: _55  and  _57
REMARK   22  A    between atoms: _57  and  _58
REMARK   23  A    between atoms: _57  and  _60
REMARK   24  A    between atoms: _60  and  _61
REMARK   25  A    between atoms: _67  and  _69
REMARK   26  A    between atoms: _69  and  _70
REMARK   27  A    between atoms: _69  and  _72
REMARK   28  A    between atoms: _72  and  _73
REMARK   29  A    between atoms: _76  and  _78
REMARK   30  A    between atoms: _78  and  _79
REMARK   31  A    between atoms: _78  and  _81
REMARK   32  A    between atoms: _81  and  _82
REMARK   33  A    between atoms: _82  and  _83
REMARK   34  A    between atoms: _83  and  _84
REMARK   35  A    between atoms: _84  and  _85
REMARK   36  A    between atoms: _89  and  _91
REMARK   37  A    between atoms: _91  and  _92
REMARK   38  A    between atoms: _91  and  _94
REMARK   39  A    between atoms: _94  and  _95
REMARK   40  A    between atoms: _95  and  _96
REMARK   41  A    between atoms: _99  and  _101
REMARK   42  A    between atoms: _101  and  _102
REMARK   43  A    between atoms: _101  and  _104
REMARK   44  A    between atoms: _104  and  _105
REMARK   45  A    between atoms: _108  and  _110
REMARK   46  A    between atoms: _110  and  _111
REMARK   47  A    between atoms: _110  and  _113
REMARK   48  A    between atoms: _113  and  _114
REMARK   49  A    between atoms: _119  and  _120
REMARK   50  A    between atoms: _122  and  _124
REMARK   51  A    between atoms: _124  and  _125
REMARK   52  A    between atoms: _124  and  _127
REMARK   53  A    between atoms: _127  and  _128
REMARK   54  A    between atoms: _131  and  _133
REMARK   55  A    between atoms: _133  and  _134
REMARK   56  A    between atoms: _133  and  _136
REMARK   57  A    between atoms: _136  and  _137
REMARK   58  A    between atoms: _140  and  _142
REMARK   59  A    between atoms: _142  and  _143
REMARK   60  A    between atoms: _142  and  _145
REMARK   61  A    between atoms: _148  and  _150
REMARK   62  A    between atoms: _150  and  _151
REMARK   63  A    between atoms: _150  and  _153
REMARK   64  A    between atoms: _153  and  _154
REMARK   65  A    between atoms: _154  and  _155
REMARK   66  A    between atoms: _155  and  _156
REMARK   67  A    between atoms: _165  and  _167
REMARK   68  A    between atoms: _167  and  _168
REMARK   69  A    between atoms: _167  and  _170
REMARK   70  A    between atoms: _170  and  _171
REMARK   71  A    between atoms: _176  and  _178
REMARK   72  A    between atoms: _178  and  _179
REMARK   73  A    between atoms: _178  and  _181
REMARK   74  A    between atoms: _181  and  _182
REMARK   75  A    between atoms: _182  and  _183
REMARK   76  A    between atoms: _186  and  _188
REMARK   77  A    between atoms: _188  and  _189
REMARK   78  A    between atoms: _188  and  _191
REMARK   79  A    between atoms: _191  and  _192
REMARK   80  A    between atoms: _192  and  _193
REMARK   81  A    between atoms: _193  and  _194
REMARK   82  A    between atoms: _194  and  _195
REMARK   83  A    between atoms: _199  and  _201
REMARK   84  A    between atoms: _201  and  _202
REMARK   85  A    between atoms: _204  and  _206
REMARK   86  A    between atoms: _206  and  _207
REMARK   87  A    between atoms: _206  and  _209
REMARK   88  A    between atoms: _212  and  _214
REMARK   89  A    between atoms: _214  and  _215
REMARK   90  A    between atoms: _214  and  _217
REMARK   91  A    between atoms: _217  and  _218
REMARK   92  A    between atoms: _220  and  _222
REMARK   93  A    between atoms: _222  and  _223
REMARK   94  A    between atoms: _222  and  _225
REMARK   95  A    between atoms: _225  and  _226
REMARK   96  A    between atoms: _228  and  _230
REMARK   97  A    between atoms: _230  and  _231
REMARK   98  A    between atoms: _230  and  _233
REMARK   99  A    between atoms: _233  and  _234
REMARK  100  A    between atoms: _240  and  _242
REMARK  101  A    between atoms: _242  and  _243
REMARK  102  A    between atoms: _242  and  _245
REMARK  103  A    between atoms: _245  and  _246
REMARK  104  A    between atoms: _249  and  _251
REMARK  105  A    between atoms: _251  and  _252
REMARK  106  A    between atoms: _251  and  _254
REMARK  107  A    between atoms: _254  and  _255
REMARK  108  A    between atoms: _258  and  _260
REMARK  109  A    between atoms: _260  and  _261
REMARK  110  A    between atoms: _260  and  _263
REMARK  111  A    between atoms: _263  and  _264
REMARK  112  A    between atoms: _264  and  _265
REMARK  113  A    between atoms: _267  and  _269
REMARK  114  A    between atoms: _269  and  _270
REMARK  115  A    between atoms: _269  and  _272
REMARK  116  A    between atoms: _272  and  _273
REMARK  117  A    between atoms: _279  and  _281
REMARK  118  A    between atoms: _281  and  _282
REMARK  119  A    between atoms: _281  and  _284
REMARK  120  A    between atoms: _286  and  _288
REMARK  121  A    between atoms: _288  and  _289
REMARK  122  A    between atoms: _292  and  _294
REMARK  123  A    between atoms: _294  and  _295
REMARK  124  A    between atoms: _297  and  _299
REMARK  125  A    between atoms: _299  and  _300
REMARK  126  A    between atoms: _299  and  _302
REMARK  127  A    between atoms: _302  and  _303
REMARK  128  A    between atoms: _303  and  _304
REMARK  129  A    between atoms: _307  and  _309
REMARK  130  A    between atoms: _309  and  _310
REMARK  131  A    between atoms: _309  and  _312
REMARK  132  A    between atoms: _312  and  _313
REMARK  133  A    between atoms: _316  and  _318
REMARK  134  A    between atoms: _318  and  _319
REMARK  135  A    between atoms: _322  and  _324
REMARK  136  A    between atoms: _324  and  _325
REMARK  137  A    between atoms: _324  and  _327
REMARK  138  A    between atoms: _327  and  _328
REMARK  139  A    between atoms: _328  and  _451
REMARK  140  A    between atoms: _329  and  _331
REMARK  141  A    between atoms: _331  and  _332
REMARK  142  A    between atoms: _331  and  _334
REMARK  143  A    between atoms: _334  and  _335
REMARK  144  A    between atoms: _335  and  _336
REMARK  145  A    between atoms: _341  and  _343
REMARK  146  A    between atoms: _343  and  _344
REMARK  147  A    between atoms: _346  and  _348
REMARK  148  A    between atoms: _348  and  _349
REMARK  149  A    between atoms: _348  and  _351
REMARK  150  A    between atoms: _351  and  _352
REMARK  151  A    between atoms: _355  and  _357
REMARK  152  A    between atoms: _357  and  _358
REMARK  153  A    between atoms: _357  and  _360
REMARK  154  A    between atoms: _360  and  _361
REMARK  155  A    between atoms: _363  and  _365
REMARK  156  A    between atoms: _365  and  _366
REMARK  157  A    between atoms: _368  and  _370
REMARK  158  A    between atoms: _370  and  _371
REMARK  159  A    between atoms: _373  and  _375
REMARK  160  A    between atoms: _375  and  _376
REMARK  161  A    between atoms: _375  and  _378
REMARK  162  A    between atoms: _378  and  _379
REMARK  163  A    between atoms: _384  and  _386
REMARK  164  A    between atoms: _386  and  _387
REMARK  165  A    between atoms: _386  and  _389
REMARK  166  A    between atoms: _389  and  _390
REMARK  167  A    between atoms: _393  and  _395
REMARK  168  A    between atoms: _395  and  _396
REMARK  169  A    between atoms: _395  and  _398
REMARK  170  A    between atoms: _401  and  _403
REMARK  171  A    between atoms: _403  and  _404
REMARK  172  A    between atoms: _403  and  _406
REMARK  173  A    between atoms: _406  and  _407
REMARK  174  A    between atoms: _409  and  _411
REMARK  175  A    between atoms: _411  and  _412
REMARK  176  A    between atoms: _411  and  _414
REMARK  177  A    between atoms: _414  and  _415
REMARK  178  A    between atoms: _425  and  _427
REMARK  179  A    between atoms: _427  and  _428
REMARK  180  A    between atoms: _430  and  _432
REMARK  181  A    between atoms: _432  and  _433
REMARK  182  A    between atoms: _432  and  _435
REMARK  183  A    between atoms: _435  and  _436
REMARK  184  A    between atoms: _436  and  _437
REMARK  185  A    between atoms: _440  and  _442
REMARK  186  A    between atoms: _442  and  _443
REMARK  187  A    between atoms: _445  and  _447
REMARK  188  A    between atoms: _447  and  _448
REMARK  189  A    between atoms: _447  and  _450
REMARK  190  A    between atoms: _450  and  _451
REMARK  191  A    between atoms: _452  and  _454
REMARK  192  A    between atoms: _454  and  _455
REMARK  193  A    between atoms: _458  and  _460
REMARK  194  A    between atoms: _460  and  _461
REMARK  195  A    between atoms: _460  and  _463
REMARK  196  A    between atoms: _463  and  _464
REMARK  197  A    between atoms: _464  and  _465
REMARK  198  A    between atoms: _465  and  _466
REMARK  199  A    between atoms: _475  and  _477
REMARK  200  A    between atoms: _477  and  _478
REMARK  201  A    between atoms: _477  and  _480
REMARK  202  A    between atoms: _480  and  _481
REMARK  203  A    between atoms: _481  and  _482
REMARK  204  A    between atoms: _482  and  _483
REMARK  205  A    between atoms: _483  and  _484
REMARK  206  A    between atoms: _488  and  _490
REMARK  207  A    between atoms: _490  and  _491
REMARK  208  A    between atoms: _490  and  _493
REMARK  209  A    between atoms: _493  and  _494
REMARK  210  A    between atoms: _499  and  _500
REMARK  211  A    between atoms: _502  and  _504
REMARK  212  A    between atoms: _504  and  _505
REMARK  213  A    between atoms: _507  and  _509
REMARK  214  A    between atoms: _509  and  _510
REMARK  215  A    between atoms: _509  and  _512
REMARK  216  A    between atoms: _512  and  _513
REMARK  217  A    between atoms: _516  and  _518
REMARK  218  A    between atoms: _518  and  _519
REMARK  219  A    between atoms: _518  and  _521
REMARK  220  A    between atoms: _521  and  _522
REMARK  221  A    between atoms: _527  and  _528
REMARK  222  A    between atoms: _530  and  _532
REMARK  223  A    between atoms: _532  and  _533
REMARK  224  A    between atoms: _532  and  _535
REMARK  225  A    between atoms: _535  and  _536
REMARK                            x       y       z     vdW  Elec       q    Type
REMARK                         _______ _______ _______ _____ _____    ______ ____
ROOT
ATOM      1  O   HOH     1       3.912  16.886  22.910  0.00  0.00    +0.000 OA
ENDROOT
TORSDOF 0
REMARK  Name = ../refined-set-2016/2jkh/2jkh_pocket.pdb
REMARK  225 active torsions:
REMARK  status: ('A' for Active; 'I' for Inactive)
REMARK    1  A    between atoms: _1  and  _5
REMARK    2  A    between atoms: _5  and  _6
REMARK    3  A    between atoms: _5  and  _8
REMARK    4  A    between atoms: _8  and  _9
REMARK    5  A    between atoms: _12  and  _14
REMARK    6  A    between atoms: _14  and  _15
REMARK    7  A    between atoms: _14  and  _17
REMARK    8  A    between atoms: _20  and  _22
REMARK    9  A    between atoms: _22  and  _23
REMARK   10  A    between atoms: _22  and  _25
REMARK   11  A    between atoms: _25  and  _26
REMARK   12  A    between atoms: _32  and  _34
REMARK   13  A    between atoms: _34  and  _35
REMARK   14  A    between atoms: _34  and  _37
REMARK   15  A    between atoms: _37  and  _38
REMARK   16  A    between atoms: _43  and  _45
REMARK   17  A    between atoms: _45  and  _46
REMARK   18  A    between atoms: _45  and  _48
REMARK   19  A    between atoms: _48  and  _49
REMARK   20  A    between atoms: _49  and  _50
REMARK   21  A    between atoms: _55  and  _57
REMARK   22  A    between atoms: _57  and  _58
REMARK   23  A    between atoms: _57  and  _60
REMARK   24  A    between atoms: _60  and  _61
REMARK   25  A    between atoms: _67  and  _69
REMARK   26  A    between atoms: _69  and  _70
REMARK   27  A    between atoms: _69  and  _72
REMARK   28  A    between atoms: _72  and  _73
REMARK   29  A    between atoms: _76  and  _78
REMARK   30  A    between atoms: _78  and  _79
REMARK   31  A    between atoms: _78  and  _81
REMARK   32  A    between atoms: _81  and  _82
REMARK   33  A    between atoms: _82  and  _83
REMARK   34  A    between atoms: _83  and  _84
REMARK   35  A    between atoms: _84  and  _85
REMARK   36  A    between atoms: _89  and  _91
REMARK   37  A    between atoms: _91  and  _92
REMARK   38  A    between atoms: _91  and  _94
REMARK   39  A    between atoms: _94  and  _95
REMARK   40  A    between atoms: _95  and  _96
REMARK   41  A    between atoms: _99  and  _101
REMARK   42  A    between atoms: _101  and  _102
REMARK   43  A    between atoms: _101  and  _104
REMARK   44  A    between atoms: _104  and  _105
REMARK   45  A    between atoms: _108  and  _110
REMARK   46  A    between atoms: _110  and  _111
REMARK   47  A    between atoms: _110  and  _113
REMARK   48  A    between atoms: _113  and  _114
REMARK   49  A    between atoms: _119  and  _120
REMARK   50  A    between atoms: _122  and  _124
REMARK   51  A    between atoms: _124  and  _125
REMARK   52  A    between atoms: _124  and  _127
REMARK   53  A    between atoms: _127  and  _128
REMARK   54  A    between atoms: _131  and  _133
REMARK   55  A    between atoms: _133  and  _134
REMARK   56  A    between atoms: _133  and  _136
REMARK   57  A    between atoms: _136  and  _137
REMARK   58  A    between atoms: _140  and  _142
REMARK   59  A    between atoms: _142  and  _143
REMARK   60  A    between atoms: _142  and  _145
REMARK   61  A    between atoms: _148  and  _150
REMARK   62  A    between atoms: _150  and  _151
REMARK   63  A    between atoms: _150  and  _153
REMARK   64  A    between atoms: _153  and  _154
REMARK   65  A    between atoms: _154  and  _155
REMARK   66  A    between atoms: _155  and  _156
REMARK   67  A    between atoms: _165  and  _167
REMARK   68  A    between atoms: _167  and  _168
REMARK   69  A    between atoms: _167  and  _170
REMARK   70  A    between atoms: _170  and  _171
REMARK   71  A    between atoms: _176  and  _178
REMARK   72  A    between atoms: _178  and  _179
REMARK   73  A    between atoms: _178  and  _181
REMARK   74  A    between atoms: _181  and  _182
REMARK   75  A    between atoms: _182  and  _183
REMARK   76  A    between atoms: _186  and  _188
REMARK   77  A    between atoms: _188  and  _189
REMARK   78  A    between atoms: _188  and  _191
REMARK   79  A    between atoms: _191  and  _192
REMARK   80  A    between atoms: _192  and  _193
REMARK   81  A    between atoms: _193  and  _194
REMARK   82  A    between atoms: _194  and  _195
REMARK   83  A    between atoms: _199  and  _201
REMARK   84  A    between atoms: _201  and  _202
REMARK   85  A    between atoms: _204  and  _206
REMARK   86  A    between atoms: _206  and  _207
REMARK   87  A    between atoms: _206  and  _209
REMARK   88  A    between atoms: _212  and  _214
REMARK   89  A    between atoms: _214  and  _215
REMARK   90  A    between atoms: _214  and  _217
REMARK   91  A    between atoms: _217  and  _218
REMARK   92  A    between atoms: _220  and  _222
REMARK   93  A    between atoms: _222  and  _223
REMARK   94  A    between atoms: _222  and  _225
REMARK   95  A    between atoms: _225  and  _226
REMARK   96  A    between atoms: _228  and  _230
REMARK   97  A    between atoms: _230  and  _231
REMARK   98  A    between atoms: _230  and  _233
REMARK   99  A    between atoms: _233  and  _234
REMARK  100  A    between atoms: _240  and  _242
REMARK  101  A    between atoms: _242  and  _243
REMARK  102  A    between atoms: _242  and  _245
REMARK  103  A    between atoms: _245  and  _246
REMARK  104  A    between atoms: _249  and  _251
REMARK  105  A    between atoms: _251  and  _252
REMARK  106  A    between atoms: _251  and  _254
REMARK  107  A    between atoms: _254  and  _255
REMARK  108  A    between atoms: _258  and  _260
REMARK  109  A    between atoms: _260  and  _261
REMARK  110  A    between atoms: _260  and  _263
REMARK  111  A    between atoms: _263  and  _264
REMARK  112  A    between atoms: _264  and  _265
REMARK  113  A    between atoms: _267  and  _269
REMARK  114  A    between atoms: _269  and  _270
REMARK  115  A    between atoms: _269  and  _272
REMARK  116  A    between atoms: _272  and  _273
REMARK  117  A    between atoms: _279  and  _281
REMARK  118  A    between atoms: _281  and  _282
REMARK  119  A    between atoms: _281  and  _284
REMARK  120  A    between atoms: _286  and  _288
REMARK  121  A    between atoms: _288  and  _289
REMARK  122  A    between atoms: _292  and  _294
REMARK  123  A    between atoms: _294  and  _295
REMARK  124  A    between atoms: _297  and  _299
REMARK  125  A    between atoms: _299  and  _300
REMARK  126  A    between atoms: _299  and  _302
REMARK  127  A    between atoms: _302  and  _303
REMARK  128  A    between atoms: _303  and  _304
REMARK  129  A    between atoms: _307  and  _309
REMARK  130  A    between atoms: _309  and  _310
REMARK  131  A    between atoms: _309  and  _312
REMARK  132  A    between atoms: _312  and  _313
REMARK  133  A    between atoms: _316  and  _318
REMARK  134  A    between atoms: _318  and  _319
REMARK  135  A    between atoms: _322  and  _324
REMARK  136  A    between atoms: _324  and  _325
REMARK  137  A    between atoms: _324  and  _327
REMARK  138  A    between atoms: _327  and  _328
REMARK  139  A    between atoms: _328  and  _451
REMARK  140  A    between atoms: _329  and  _331
REMARK  141  A    between atoms: _331  and  _332
REMARK  142  A    between atoms: _331  and  _334
REMARK  143  A    between atoms: _334  and  _335
REMARK  144  A    between atoms: _335  and  _336
REMARK  145  A    between atoms: _341  and  _343
REMARK  146  A    between atoms: _343  and  _344
REMARK  147  A    between atoms: _346  and  _348
REMARK  148  A    between atoms: _348  and  _349
REMARK  149  A    between atoms: _348  and  _351
REMARK  150  A    between atoms: _351  and  _352
REMARK  151  A    between atoms: _355  and  _357
REMARK  152  A    between atoms: _357  and  _358
REMARK  153  A    between atoms: _357  and  _360
REMARK  154  A    between atoms: _360  and  _361
REMARK  155  A    between atoms: _363  and  _365
REMARK  156  A    between atoms: _365  and  _366
REMARK  157  A    between atoms: _368  and  _370
REMARK  158  A    between atoms: _370  and  _371
REMARK  159  A    between atoms: _373  and  _375
REMARK  160  A    between atoms: _375  and  _376
REMARK  161  A    between atoms: _375  and  _378
REMARK  162  A    between atoms: _378  and  _379
REMARK  163  A    between atoms: _384  and  _386
REMARK  164  A    between atoms: _386  and  _387
REMARK  165  A    between atoms: _386  and  _389
REMARK  166  A    between atoms: _389  and  _390
REMARK  167  A    between atoms: _393  and  _395
REMARK  168  A    between atoms: _395  and  _396
REMARK  169  A    between atoms: _395  and  _398
REMARK  170  A    between atoms: _401  and  _403
REMARK  171  A    between atoms: _403  and  _404
REMARK  172  A    between atoms: _403  and  _406
REMARK  173  A    between atoms: _406  and  _407
REMARK  174  A    between atoms: _409  and  _411
REMARK  175  A    between atoms: _411  and  _412
REMARK  176  A    between atoms: _411  and  _414
REMARK  177  A    between atoms: _414  and  _415
REMARK  178  A    between atoms: _425  and  _427
REMARK  179  A    between atoms: _427  and  _428
REMARK  180  A    between atoms: _430  and  _432
REMARK  181  A    between atoms: _432  and  _433
REMARK  182  A    between atoms: _432  and  _435
REMARK  183  A    between atoms: _435  and  _436
REMARK  184  A    between atoms: _436  and  _437
REMARK  185  A    between atoms: _440  and  _442
REMARK  186  A    between atoms: _442  and  _443
REMARK  187  A    between atoms: _445  and  _447
REMARK  188  A    between atoms: _447  and  _448
REMARK  189  A    between atoms: _447  and  _450
REMARK  190  A    between atoms: _450  and  _451
REMARK  191  A    between atoms: _452  and  _454
REMARK  192  A    between atoms: _454  and  _455
REMARK  193  A    between atoms: _458  and  _460
REMARK  194  A    between atoms: _460  and  _461
REMARK  195  A    between atoms: _460  and  _463
REMARK  196  A    between atoms: _463  and  _464
REMARK  197  A    between atoms: _464  and  _465
REMARK  198  A    between atoms: _465  and  _466
REMARK  199  A    between atoms: _475  and  _477
REMARK  200  A    between atoms: _477  and  _478
REMARK  201  A    between atoms: _477  and  _480
REMARK  202  A    between atoms: _480  and  _481
REMARK  203  A    between atoms: _481  and  _482
REMARK  204  A    between atoms: _482  and  _483
REMARK  205  A    between atoms: _483  and  _484
REMARK  206  A    between atoms: _488  and  _490
REMARK  207  A    between atoms: _490  and  _491
REMARK  208  A    between atoms: _490  and  _493
REMARK  209  A    between atoms: _493  and  _494
REMARK  210  A    between atoms: _499  and  _500
REMARK  211  A    between atoms: _502  and  _504
REMARK  212  A    between atoms: _504  and  _505
REMARK  213  A    between atoms: _507  and  _509
REMARK  214  A    between atoms: _509  and  _510
REMARK  215  A    between atoms: _509  and  _512
REMARK  216  A    between atoms: _512  and  _513
REMARK  217  A    between atoms: _516  and  _518
REMARK  218  A    between atoms: _518  and  _519
REMARK  219  A    between atoms: _518  and  _521
REMARK  220  A    between atoms: _521  and  _522
REMARK  221  A    between atoms: _527  and  _528
REMARK  222  A    between atoms: _530  and  _532
REMARK  223  A    between atoms: _532  and  _533
REMARK  224  A    between atoms: _532  and  _535
REMARK  225  A    between atoms: _535  and  _536
REMARK                            x       y       z     vdW  Elec       q    Type
REMARK                         _______ _______ _______ _____ _____    ______ ____
ROOT
ATOM      1  O   HOH     1      -8.753   3.566  16.032  0.00  0.00    +0.000 OA
ENDROOT
TORSDOF 0
REMARK  Name = ../refined-set-2016/2jkh/2jkh_pocket.pdb
REMARK  225 active torsions:
REMARK  status: ('A' for Active; 'I' for Inactive)
REMARK    1  A    between atoms: _1  and  _5
REMARK    2  A    between atoms: _5  and  _6
REMARK    3  A    between atoms: _5  and  _8
REMARK    4  A    between atoms: _8  and  _9
REMARK    5  A    between atoms: _12  and  _14
REMARK    6  A    between atoms: _14  and  _15
REMARK    7  A    between atoms: _14  and  _17
REMARK    8  A    between atoms: _20  and  _22
REMARK    9  A    between atoms: _22  and  _23
REMARK   10  A    between atoms: _22  and  _25
REMARK   11  A    between atoms: _25  and  _26
REMARK   12  A    between atoms: _32  and  _34
REMARK   13  A    between atoms: _34  and  _35
REMARK   14  A    between atoms: _34  and  _37
REMARK   15  A    between atoms: _37  and  _38
REMARK   16  A    between atoms: _43  and  _45
REMARK   17  A    between atoms: _45  and  _46
REMARK   18  A    between atoms: _45  and  _48
REMARK   19  A    between atoms: _48  and  _49
REMARK   20  A    between atoms: _49  and  _50
REMARK   21  A    between atoms: _55  and  _57
REMARK   22  A    between atoms: _57  and  _58
REMARK   23  A    between atoms: _57  and  _60
REMARK   24  A    between atoms: _60  and  _61
REMARK   25  A    between atoms: _67  and  _69
REMARK   26  A    between atoms: _69  and  _70
REMARK   27  A    between atoms: _69  and  _72
REMARK   28  A    between atoms: _72  and  _73
REMARK   29  A    between atoms: _76  and  _78
REMARK   30  A    between atoms: _78  and  _79
REMARK   31  A    between atoms: _78  and  _81
REMARK   32  A    between atoms: _81  and  _82
REMARK   33  A    between atoms: _82  and  _83
REMARK   34  A    between atoms: _83  and  _84
REMARK   35  A    between atoms: _84  and  _85
REMARK   36  A    between atoms: _89  and  _91
REMARK   37  A    between atoms: _91  and  _92
REMARK   38  A    between atoms: _91  and  _94
REMARK   39  A    between atoms: _94  and  _95
REMARK   40  A    between atoms: _95  and  _96
REMARK   41  A    between atoms: _99  and  _101
REMARK   42  A    between atoms: _101  and  _102
REMARK   43  A    between atoms: _101  and  _104
REMARK   44  A    between atoms: _104  and  _105
REMARK   45  A    between atoms: _108  and  _110
REMARK   46  A    between atoms: _110  and  _111
REMARK   47  A    between atoms: _110  and  _113
REMARK   48  A    between atoms: _113  and  _114
REMARK   49  A    between atoms: _119  and  _120
REMARK   50  A    between atoms: _122  and  _124
REMARK   51  A    between atoms: _124  and  _125
REMARK   52  A    between atoms: _124  and  _127
REMARK   53  A    between atoms: _127  and  _128
REMARK   54  A    between atoms: _131  and  _133
REMARK   55  A    between atoms: _133  and  _134
REMARK   56  A    between atoms: _133  and  _136
REMARK   57  A    between atoms: _136  and  _137
REMARK   58  A    between atoms: _140  and  _142
REMARK   59  A    between atoms: _142  and  _143
REMARK   60  A    between atoms: _142  and  _145
REMARK   61  A    between atoms: _148  and  _150
REMARK   62  A    between atoms: _150  and  _151
REMARK   63  A    between atoms: _150  and  _153
REMARK   64  A    between atoms: _153  and  _154
REMARK   65  A    between atoms: _154  and  _155
REMARK   66  A    between atoms: _155  and  _156
REMARK   67  A    between atoms: _165  and  _167
REMARK   68  A    between atoms: _167  and  _168
REMARK   69  A    between atoms: _167  and  _170
REMARK   70  A    between atoms: _170  and  _171
REMARK   71  A    between atoms: _176  and  _178
REMARK   72  A    between atoms: _178  and  _179
REMARK   73  A    between atoms: _178  and  _181
REMARK   74  A    between atoms: _181  and  _182
REMARK   75  A    between atoms: _182  and  _183
REMARK   76  A    between atoms: _186  and  _188
REMARK   77  A    between atoms: _188  and  _189
REMARK   78  A    between atoms: _188  and  _191
REMARK   79  A    between atoms: _191  and  _192
REMARK   80  A    between atoms: _192  and  _193
REMARK   81  A    between atoms: _193  and  _194
REMARK   82  A    between atoms: _194  and  _195
REMARK   83  A    between atoms: _199  and  _201
REMARK   84  A    between atoms: _201  and  _202
REMARK   85  A    between atoms: _204  and  _206
REMARK   86  A    between atoms: _206  and  _207
REMARK   87  A    between atoms: _206  and  _209
REMARK   88  A    between atoms: _212  and  _214
REMARK   89  A    between atoms: _214  and  _215
REMARK   90  A    between atoms: _214  and  _217
REMARK   91  A    between atoms: _217  and  _218
REMARK   92  A    between atoms: _220  and  _222
REMARK   93  A    between atoms: _222  and  _223
REMARK   94  A    between atoms: _222  and  _225
REMARK   95  A    between atoms: _225  and  _226
REMARK   96  A    between atoms: _228  and  _230
REMARK   97  A    between atoms: _230  and  _231
REMARK   98  A    between atoms: _230  and  _233
REMARK   99  A    between atoms: _233  and  _234
REMARK  100  A    between atoms: _240  and  _242
REMARK  101  A    between atoms: _242  and  _243
REMARK  102  A    between atoms: _242  and  _245
REMARK  103  A    between atoms: _245  and  _246
REMARK  104  A    between atoms: _249  and  _251
REMARK  105  A    between atoms: _251  and  _252
REMARK  106  A    between atoms: _251  and  _254
REMARK  107  A    between atoms: _254  and  _255
REMARK  108  A    between atoms: _258  and  _260
REMARK  109  A    between atoms: _260  and  _261
REMARK  110  A    between atoms: _260  and  _263
REMARK  111  A    between atoms: _263  and  _264
REMARK  112  A    between atoms: _264  and  _265
REMARK  113  A    between atoms: _267  and  _269
REMARK  114  A    between atoms: _269  and  _270
REMARK  115  A    between atoms: _269  and  _272
REMARK  116  A    between atoms: _272  and  _273
REMARK  117  A    between atoms: _279  and  _281
REMARK  118  A    between atoms: _281  and  _282
REMARK  119  A    between atoms: _281  and  _284
REMARK  120  A    between atoms: _286  and  _288
REMARK  121  A    between atoms: _288  and  _289
REMARK  122  A    between atoms: _292  and  _294
REMARK  123  A    between atoms: _294  and  _295
REMARK  124  A    between atoms: _297  and  _299
REMARK  125  A    between atoms: _299  and  _300
REMARK  126  A    between atoms: _299  and  _302
REMARK  127  A    between atoms: _302  and  _303
REMARK  128  A    between atoms: _303  and  _304
REMARK  129  A    between atoms: _307  and  _309
REMARK  130  A    between atoms: _309  and  _310
REMARK  131  A    between atoms: _309  and  _312
REMARK  132  A    between atoms: _312  and  _313
REMARK  133  A    between atoms: _316  and  _318
REMARK  134  A    between atoms: _318  and  _319
REMARK  135  A    between atoms: _322  and  _324
REMARK  136  A    between atoms: _324  and  _325
REMARK  137  A    between atoms: _324  and  _327
REMARK  138  A    between atoms: _327  and  _328
REMARK  139  A    between atoms: _328  and  _451
REMARK  140  A    between atoms: _329  and  _331
REMARK  141  A    between atoms: _331  and  _332
REMARK  142  A    between atoms: _331  and  _334
REMARK  143  A    between atoms: _334  and  _335
REMARK  144  A    between atoms: _335  and  _336
REMARK  145  A    between atoms: _341  and  _343
REMARK  146  A    between atoms: _343  and  _344
REMARK  147  A    between atoms: _346  and  _348
REMARK  148  A    between atoms: _348  and  _349
REMARK  149  A    between atoms: _348  and  _351
REMARK  150  A    between atoms: _351  and  _352
REMARK  151  A    between atoms: _355  and  _357
REMARK  152  A    between atoms: _357  and  _358
REMARK  153  A    between atoms: _357  and  _360
REMARK  154  A    between atoms: _360  and  _361
REMARK  155  A    between atoms: _363  and  _365
REMARK  156  A    between atoms: _365  and  _366
REMARK  157  A    between atoms: _368  and  _370
REMARK  158  A    between atoms: _370  and  _371
REMARK  159  A    between atoms: _373  and  _375
REMARK  160  A    between atoms: _375  and  _376
REMARK  161  A    between atoms: _375  and  _378
REMARK  162  A    between atoms: _378  and  _379
REMARK  163  A    between atoms: _384  and  _386
REMARK  164  A    between atoms: _386  and  _387
REMARK  165  A    between atoms: _386  and  _389
REMARK  166  A    between atoms: _389  and  _390
REMARK  167  A    between atoms: _393  and  _395
REMARK  168  A    between atoms: _395  and  _396
REMARK  169  A    between atoms: _395  and  _398
REMARK  170  A    between atoms: _401  and  _403
REMARK  171  A    between atoms: _403  and  _404
REMARK  172  A    between atoms: _403  and  _406
REMARK  173  A    between atoms: _406  and  _407
REMARK  174  A    between atoms: _409  and  _411
REMARK  175  A    between atoms: _411  and  _412
REMARK  176  A    between atoms: _411  and  _414
REMARK  177  A    between atoms: _414  and  _415
REMARK  178  A    between atoms: _425  and  _427
REMARK  179  A    between atoms: _427  and  _428
REMARK  180  A    between atoms: _430  and  _432
REMARK  181  A    between atoms: _432  and  _433
REMARK  182  A    between atoms: _432  and  _435
REMARK  183  A    between atoms: _435  and  _436
REMARK  184  A    between atoms: _436  and  _437
REMARK  185  A    between atoms: _440  and  _442
REMARK  186  A    between atoms: _442  and  _443
REMARK  187  A    between atoms: _445  and  _447
REMARK  188  A    between atoms: _447  and  _448
REMARK  189  A    between atoms: _447  and  _450
REMARK  190  A    between atoms: _450  and  _451
REMARK  191  A    between atoms: _452  and  _454
REMARK  192  A    between atoms: _454  and  _455
REMARK  193  A    between atoms: _458  and  _460
REMARK  194  A    between atoms: _460  and  _461
REMARK  195  A    between atoms: _460  and  _463
REMARK  196  A    between atoms: _463  and  _464
REMARK  197  A    between atoms: _464  and  _465
REMARK  198  A    between atoms: _465  and  _466
REMARK  199  A    between atoms: _475  and  _477
REMARK  200  A    between atoms: _477  and  _478
REMARK  201  A    between atoms: _477  and  _480
REMARK  202  A    between atoms: _480  and  _481
REMARK  203  A    between atoms: _481  and  _482
REMARK  204  A    between atoms: _482  and  _483
REMARK  205  A    between atoms: _483  and  _484
REMARK  206  A    between atoms: _488  and  _490
REMARK  207  A    between atoms: _490  and  _491
REMARK  208  A    between atoms: _490  and  _493
REMARK  209  A    between atoms: _493  and  _494
REMARK  210  A    between atoms: _499  and  _500
REMARK  211  A    between atoms: _502  and  _504
REMARK  212  A    between atoms: _504  and  _505
REMARK  213  A    between atoms: _507  and  _509
REMARK  214  A    between atoms: _509  and  _510
REMARK  215  A    between atoms: _509  and  _512
REMARK  216  A    between atoms: _512  and  _513
REMARK  217  A    between atoms: _516  and  _518
REMARK  218  A    between atoms: _518  and  _519
REMARK  219  A    between atoms: _518  and  _521
REMARK  220  A    between atoms: _521  and  _522
REMARK  221  A    between atoms: _527  and  _528
REMARK  222  A    between atoms: _530  and  _532
REMARK  223  A    between atoms: _532  and  _533
REMARK  224  A    between atoms: _532  and  _535
REMARK  225  A    between atoms: _535  and  _536
REMARK                            x       y       z     vdW  Elec       q    Type
REMARK                         _______ _______ _______ _____ _____    ______ ____
ROOT
ATOM      1  O   HOH     1      -8.915   7.786  14.592  0.00  0.00    +0.000 OA
ENDROOT
TORSDOF 0
REMARK  Name = ../refined-set-2016/2jkh/2jkh_pocket.pdb
REMARK  225 active torsions:
REMARK  status: ('A' for Active; 'I' for Inactive)
REMARK    1  A    between atoms: _1  and  _5
REMARK    2  A    between atoms: _5  and  _6
REMARK    3  A    between atoms: _5  and  _8
REMARK    4  A    between atoms: _8  and  _9
REMARK    5  A    between atoms: _12  and  _14
REMARK    6  A    between atoms: _14  and  _15
REMARK    7  A    between atoms: _14  and  _17
REMARK    8  A    between atoms: _20  and  _22
REMARK    9  A    between atoms: _22  and  _23
REMARK   10  A    between atoms: _22  and  _25
REMARK   11  A    between atoms: _25  and  _26
REMARK   12  A    between atoms: _32  and  _34
REMARK   13  A    between atoms: _34  and  _35
REMARK   14  A    between atoms: _34  and  _37
REMARK   15  A    between atoms: _37  and  _38
REMARK   16  A    between atoms: _43  and  _45
REMARK   17  A    between atoms: _45  and  _46
REMARK   18  A    between atoms: _45  and  _48
REMARK   19  A    between atoms: _48  and  _49
REMARK   20  A    between atoms: _49  and  _50
REMARK   21  A    between atoms: _55  and  _57
REMARK   22  A    between atoms: _57  and  _58
REMARK   23  A    between atoms: _57  and  _60
REMARK   24  A    between atoms: _60  and  _61
REMARK   25  A    between atoms: _67  and  _69
REMARK   26  A    between atoms: _69  and  _70
REMARK   27  A    between atoms: _69  and  _72
REMARK   28  A    between atoms: _72  and  _73
REMARK   29  A    between atoms: _76  and  _78
REMARK   30  A    between atoms: _78  and  _79
REMARK   31  A    between atoms: _78  and  _81
REMARK   32  A    between atoms: _81  and  _82
REMARK   33  A    between atoms: _82  and  _83
REMARK   34  A    between atoms: _83  and  _84
REMARK   35  A    between atoms: _84  and  _85
REMARK   36  A    between atoms: _89  and  _91
REMARK   37  A    between atoms: _91  and  _92
REMARK   38  A    between atoms: _91  and  _94
REMARK   39  A    between atoms: _94  and  _95
REMARK   40  A    between atoms: _95  and  _96
REMARK   41  A    between atoms: _99  and  _101
REMARK   42  A    between atoms: _101  and  _102
REMARK   43  A    between atoms: _101  and  _104
REMARK   44  A    between atoms: _104  and  _105
REMARK   45  A    between atoms: _108  and  _110
REMARK   46  A    between atoms: _110  and  _111
REMARK   47  A    between atoms: _110  and  _113
REMARK   48  A    between atoms: _113  and  _114
REMARK   49  A    between atoms: _119  and  _120
REMARK   50  A    between atoms: _122  and  _124
REMARK   51  A    between atoms: _124  and  _125
REMARK   52  A    between atoms: _124  and  _127
REMARK   53  A    between atoms: _127  and  _128
REMARK   54  A    between atoms: _131  and  _133
REMARK   55  A    between atoms: _133  and  _134
REMARK   56  A    between atoms: _133  and  _136
REMARK   57  A    between atoms: _136  and  _137
REMARK   58  A    between atoms: _140  and  _142
REMARK   59  A    between atoms: _142  and  _143
REMARK   60  A    between atoms: _142  and  _145
REMARK   61  A    between atoms: _148  and  _150
REMARK   62  A    between atoms: _150  and  _151
REMARK   63  A    between atoms: _150  and  _153
REMARK   64  A    between atoms: _153  and  _154
REMARK   65  A    between atoms: _154  and  _155
REMARK   66  A    between atoms: _155  and  _156
REMARK   67  A    between atoms: _165  and  _167
REMARK   68  A    between atoms: _167  and  _168
REMARK   69  A    between atoms: _167  and  _170
REMARK   70  A    between atoms: _170  and  _171
REMARK   71  A    between atoms: _176  and  _178
REMARK   72  A    between atoms: _178  and  _179
REMARK   73  A    between atoms: _178  and  _181
REMARK   74  A    between atoms: _181  and  _182
REMARK   75  A    between atoms: _182  and  _183
REMARK   76  A    between atoms: _186  and  _188
REMARK   77  A    between atoms: _188  and  _189
REMARK   78  A    between atoms: _188  and  _191
REMARK   79  A    between atoms: _191  and  _192
REMARK   80  A    between atoms: _192  and  _193
REMARK   81  A    between atoms: _193  and  _194
REMARK   82  A    between atoms: _194  and  _195
REMARK   83  A    between atoms: _199  and  _201
REMARK   84  A    between atoms: _201  and  _202
REMARK   85  A    between atoms: _204  and  _206
REMARK   86  A    between atoms: _206  and  _207
REMARK   87  A    between atoms: _206  and  _209
REMARK   88  A    between atoms: _212  and  _214
REMARK   89  A    between atoms: _214  and  _215
REMARK   90  A    between atoms: _214  and  _217
REMARK   91  A    between atoms: _217  and  _218
REMARK   92  A    between atoms: _220  and  _222
REMARK   93  A    between atoms: _222  and  _223
REMARK   94  A    between atoms: _222  and  _225
REMARK   95  A    between atoms: _225  and  _226
REMARK   96  A    between atoms: _228  and  _230
REMARK   97  A    between atoms: _230  and  _231
REMARK   98  A    between atoms: _230  and  _233
REMARK   99  A    between atoms: _233  and  _234
REMARK  100  A    between atoms: _240  and  _242
REMARK  101  A    between atoms: _242  and  _243
REMARK  102  A    between atoms: _242  and  _245
REMARK  103  A    between atoms: _245  and  _246
REMARK  104  A    between atoms: _249  and  _251
REMARK  105  A    between atoms: _251  and  _252
REMARK  106  A    between atoms: _251  and  _254
REMARK  107  A    between atoms: _254  and  _255
REMARK  108  A    between atoms: _258  and  _260
REMARK  109  A    between atoms: _260  and  _261
REMARK  110  A    between atoms: _260  and  _263
REMARK  111  A    between atoms: _263  and  _264
REMARK  112  A    between atoms: _264  and  _265
REMARK  113  A    between atoms: _267  and  _269
REMARK  114  A    between atoms: _269  and  _270
REMARK  115  A    between atoms: _269  and  _272
REMARK  116  A    between atoms: _272  and  _273
REMARK  117  A    between atoms: _279  and  _281
REMARK  118  A    between atoms: _281  and  _282
REMARK  119  A    between atoms: _281  and  _284
REMARK  120  A    between atoms: _286  and  _288
REMARK  121  A    between atoms: _288  and  _289
REMARK  122  A    between atoms: _292  and  _294
REMARK  123  A    between atoms: _294  and  _295
REMARK  124  A    between atoms: _297  and  _299
REMARK  125  A    between atoms: _299  and  _300
REMARK  126  A    between atoms: _299  and  _302
REMARK  127  A    between atoms: _302  and  _303
REMARK  128  A    between atoms: _303  and  _304
REMARK  129  A    between atoms: _307  and  _309
REMARK  130  A    between atoms: _309  and  _310
REMARK  131  A    between atoms: _309  and  _312
REMARK  132  A    between atoms: _312  and  _313
REMARK  133  A    between atoms: _316  and  _318
REMARK  134  A    between atoms: _318  and  _319
REMARK  135  A    between atoms: _322  and  _324
REMARK  136  A    between atoms: _324  and  _325
REMARK  137  A    between atoms: _324  and  _327
REMARK  138  A    between atoms: _327  and  _328
REMARK  139  A    between atoms: _328  and  _451
REMARK  140  A    between atoms: _329  and  _331
REMARK  141  A    between atoms: _331  and  _332
REMARK  142  A    between atoms: _331  and  _334
REMARK  143  A    between atoms: _334  and  _335
REMARK  144  A    between atoms: _335  and  _336
REMARK  145  A    between atoms: _341  and  _343
REMARK  146  A    between atoms: _343  and  _344
REMARK  147  A    between atoms: _346  and  _348
REMARK  148  A    between atoms: _348  and  _349
REMARK  149  A    between atoms: _348  and  _351
REMARK  150  A    between atoms: _351  and  _352
REMARK  151  A    between atoms: _355  and  _357
REMARK  152  A    between atoms: _357  and  _358
REMARK  153  A    between atoms: _357  and  _360
REMARK  154  A    between atoms: _360  and  _361
REMARK  155  A    between atoms: _363  and  _365
REMARK  156  A    between atoms: _365  and  _366
REMARK  157  A    between atoms: _368  and  _370
REMARK  158  A    between atoms: _370  and  _371
REMARK  159  A    between atoms: _373  and  _375
REMARK  160  A    between atoms: _375  and  _376
REMARK  161  A    between atoms: _375  and  _378
REMARK  162  A    between atoms: _378  and  _379
REMARK  163  A    between atoms: _384  and  _386
REMARK  164  A    between atoms: _386  and  _387
REMARK  165  A    between atoms: _386  and  _389
REMARK  166  A    between atoms: _389  and  _390
REMARK  167  A    between atoms: _393  and  _395
REMARK  168  A    between atoms: _395  and  _396
REMARK  169  A    between atoms: _395  and  _398
REMARK  170  A    between atoms: _401  and  _403
REMARK  171  A    between atoms: _403  and  _404
REMARK  172  A    between atoms: _403  and  _406
REMARK  173  A    between atoms: _406  and  _407
REMARK  174  A    between atoms: _409  and  _411
REMARK  175  A    between atoms: _411  and  _412
REMARK  176  A    between atoms: _411  and  _414
REMARK  177  A    between atoms: _414  and  _415
REMARK  178  A    between atoms: _425  and  _427
REMARK  179  A    between atoms: _427  and  _428
REMARK  180  A    between atoms: _430  and  _432
REMARK  181  A    between atoms: _432  and  _433
REMARK  182  A    between atoms: _432  and  _435
REMARK  183  A    between atoms: _435  and  _436
REMARK  184  A    between atoms: _436  and  _437
REMARK  185  A    between atoms: _440  and  _442
REMARK  186  A    between atoms: _442  and  _443
REMARK  187  A    between atoms: _445  and  _447
REMARK  188  A    between atoms: _447  and  _448
REMARK  189  A    between atoms: _447  and  _450
REMARK  190  A    between atoms: _450  and  _451
REMARK  191  A    between atoms: _452  and  _454
REMARK  192  A    between atoms: _454  and  _455
REMARK  193  A    between atoms: _458  and  _460
REMARK  194  A    between atoms: _460  and  _461
REMARK  195  A    between atoms: _460  and  _463
REMARK  196  A    between atoms: _463  and  _464
REMARK  197  A    between atoms: _464  and  _465
REMARK  198  A    between atoms: _465  and  _466
REMARK  199  A    between atoms: _475  and  _477
REMARK  200  A    between atoms: _477  and  _478
REMARK  201  A    between atoms: _477  and  _480
REMARK  202  A    between atoms: _480  and  _481
REMARK  203  A    between atoms: _481  and  _482
REMARK  204  A    between atoms: _482  and  _483
REMARK  205  A    between atoms: _483  and  _484
REMARK  206  A    between atoms: _488  and  _490
REMARK  207  A    between atoms: _490  and  _491
REMARK  208  A    between atoms: _490  and  _493
REMARK  209  A    between atoms: _493  and  _494
REMARK  210  A    between atoms: _499  and  _500
REMARK  211  A    between atoms: _502  and  _504
REMARK  212  A    between atoms: _504  and  _505
REMARK  213  A    between atoms: _507  and  _509
REMARK  214  A    between atoms: _509  and  _510
REMARK  215  A    between atoms: _509  and  _512
REMARK  216  A    between atoms: _512  and  _513
REMARK  217  A    between atoms: _516  and  _518
REMARK  218  A    between atoms: _518  and  _519
REMARK  219  A    between atoms: _518  and  _521
REMARK  220  A    between atoms: _521  and  _522
REMARK  221  A    between atoms: _527  and  _528
REMARK  222  A    between atoms: _530  and  _532
REMARK  223  A    between atoms: _532  and  _533
REMARK  224  A    between atoms: _532  and  _535
REMARK  225  A    between atoms: _535  and  _536
REMARK                            x       y       z     vdW  Elec       q    Type
REMARK                         _______ _______ _______ _____ _____    ______ ____
ROOT
ATOM      1  O   HOH     1      -0.703  11.550  19.674  0.00  0.00    +0.000 OA
ENDROOT
TORSDOF 0
REMARK  Name = ../refined-set-2016/2jkh/2jkh_pocket.pdb
REMARK  225 active torsions:
REMARK  status: ('A' for Active; 'I' for Inactive)
REMARK    1  A    between atoms: _1  and  _5
REMARK    2  A    between atoms: _5  and  _6
REMARK    3  A    between atoms: _5  and  _8
REMARK    4  A    between atoms: _8  and  _9
REMARK    5  A    between atoms: _12  and  _14
REMARK    6  A    between atoms: _14  and  _15
REMARK    7  A    between atoms: _14  and  _17
REMARK    8  A    between atoms: _20  and  _22
REMARK    9  A    between atoms: _22  and  _23
REMARK   10  A    between atoms: _22  and  _25
REMARK   11  A    between atoms: _25  and  _26
REMARK   12  A    between atoms: _32  and  _34
REMARK   13  A    between atoms: _34  and  _35
REMARK   14  A    between atoms: _34  and  _37
REMARK   15  A    between atoms: _37  and  _38
REMARK   16  A    between atoms: _43  and  _45
REMARK   17  A    between atoms: _45  and  _46
REMARK   18  A    between atoms: _45  and  _48
REMARK   19  A    between atoms: _48  and  _49
REMARK   20  A    between atoms: _49  and  _50
REMARK   21  A    between atoms: _55  and  _57
REMARK   22  A    between atoms: _57  and  _58
REMARK   23  A    between atoms: _57  and  _60
REMARK   24  A    between atoms: _60  and  _61
REMARK   25  A    between atoms: _67  and  _69
REMARK   26  A    between atoms: _69  and  _70
REMARK   27  A    between atoms: _69  and  _72
REMARK   28  A    between atoms: _72  and  _73
REMARK   29  A    between atoms: _76  and  _78
REMARK   30  A    between atoms: _78  and  _79
REMARK   31  A    between atoms: _78  and  _81
REMARK   32  A    between atoms: _81  and  _82
REMARK   33  A    between atoms: _82  and  _83
REMARK   34  A    between atoms: _83  and  _84
REMARK   35  A    between atoms: _84  and  _85
REMARK   36  A    between atoms: _89  and  _91
REMARK   37  A    between atoms: _91  and  _92
REMARK   38  A    between atoms: _91  and  _94
REMARK   39  A    between atoms: _94  and  _95
REMARK   40  A    between atoms: _95  and  _96
REMARK   41  A    between atoms: _99  and  _101
REMARK   42  A    between atoms: _101  and  _102
REMARK   43  A    between atoms: _101  and  _104
REMARK   44  A    between atoms: _104  and  _105
REMARK   45  A    between atoms: _108  and  _110
REMARK   46  A    between atoms: _110  and  _111
REMARK   47  A    between atoms: _110  and  _113
REMARK   48  A    between atoms: _113  and  _114
REMARK   49  A    between atoms: _119  and  _120
REMARK   50  A    between atoms: _122  and  _124
REMARK   51  A    between atoms: _124  and  _125
REMARK   52  A    between atoms: _124  and  _127
REMARK   53  A    between atoms: _127  and  _128
REMARK   54  A    between atoms: _131  and  _133
REMARK   55  A    between atoms: _133  and  _134
REMARK   56  A    between atoms: _133  and  _136
REMARK   57  A    between atoms: _136  and  _137
REMARK   58  A    between atoms: _140  and  _142
REMARK   59  A    between atoms: _142  and  _143
REMARK   60  A    between atoms: _142  and  _145
REMARK   61  A    between atoms: _148  and  _150
REMARK   62  A    between atoms: _150  and  _151
REMARK   63  A    between atoms: _150  and  _153
REMARK   64  A    between atoms: _153  and  _154
REMARK   65  A    between atoms: _154  and  _155
REMARK   66  A    between atoms: _155  and  _156
REMARK   67  A    between atoms: _165  and  _167
REMARK   68  A    between atoms: _167  and  _168
REMARK   69  A    between atoms: _167  and  _170
REMARK   70  A    between atoms: _170  and  _171
REMARK   71  A    between atoms: _176  and  _178
REMARK   72  A    between atoms: _178  and  _179
REMARK   73  A    between atoms: _178  and  _181
REMARK   74  A    between atoms: _181  and  _182
REMARK   75  A    between atoms: _182  and  _183
REMARK   76  A    between atoms: _186  and  _188
REMARK   77  A    between atoms: _188  and  _189
REMARK   78  A    between atoms: _188  and  _191
REMARK   79  A    between atoms: _191  and  _192
REMARK   80  A    between atoms: _192  and  _193
REMARK   81  A    between atoms: _193  and  _194
REMARK   82  A    between atoms: _194  and  _195
REMARK   83  A    between atoms: _199  and  _201
REMARK   84  A    between atoms: _201  and  _202
REMARK   85  A    between atoms: _204  and  _206
REMARK   86  A    between atoms: _206  and  _207
REMARK   87  A    between atoms: _206  and  _209
REMARK   88  A    between atoms: _212  and  _214
REMARK   89  A    between atoms: _214  and  _215
REMARK   90  A    between atoms: _214  and  _217
REMARK   91  A    between atoms: _217  and  _218
REMARK   92  A    between atoms: _220  and  _222
REMARK   93  A    between atoms: _222  and  _223
REMARK   94  A    between atoms: _222  and  _225
REMARK   95  A    between atoms: _225  and  _226
REMARK   96  A    between atoms: _228  and  _230
REMARK   97  A    between atoms: _230  and  _231
REMARK   98  A    between atoms: _230  and  _233
REMARK   99  A    between atoms: _233  and  _234
REMARK  100  A    between atoms: _240  and  _242
REMARK  101  A    between atoms: _242  and  _243
REMARK  102  A    between atoms: _242  and  _245
REMARK  103  A    between atoms: _245  and  _246
REMARK  104  A    between atoms: _249  and  _251
REMARK  105  A    between atoms: _251  and  _252
REMARK  106  A    between atoms: _251  and  _254
REMARK  107  A    between atoms: _254  and  _255
REMARK  108  A    between atoms: _258  and  _260
REMARK  109  A    between atoms: _260  and  _261
REMARK  110  A    between atoms: _260  and  _263
REMARK  111  A    between atoms: _263  and  _264
REMARK  112  A    between atoms: _264  and  _265
REMARK  113  A    between atoms: _267  and  _269
REMARK  114  A    between atoms: _269  and  _270
REMARK  115  A    between atoms: _269  and  _272
REMARK  116  A    between atoms: _272  and  _273
REMARK  117  A    between atoms: _279  and  _281
REMARK  118  A    between atoms: _281  and  _282
REMARK  119  A    between atoms: _281  and  _284
REMARK  120  A    between atoms: _286  and  _288
REMARK  121  A    between atoms: _288  and  _289
REMARK  122  A    between atoms: _292  and  _294
REMARK  123  A    between atoms: _294  and  _295
REMARK  124  A    between atoms: _297  and  _299
REMARK  125  A    between atoms: _299  and  _300
REMARK  126  A    between atoms: _299  and  _302
REMARK  127  A    between atoms: _302  and  _303
REMARK  128  A    between atoms: _303  and  _304
REMARK  129  A    between atoms: _307  and  _309
REMARK  130  A    between atoms: _309  and  _310
REMARK  131  A    between atoms: _309  and  _312
REMARK  132  A    between atoms: _312  and  _313
REMARK  133  A    between atoms: _316  and  _318
REMARK  134  A    between atoms: _318  and  _319
REMARK  135  A    between atoms: _322  and  _324
REMARK  136  A    between atoms: _324  and  _325
REMARK  137  A    between atoms: _324  and  _327
REMARK  138  A    between atoms: _327  and  _328
REMARK  139  A    between atoms: _328  and  _451
REMARK  140  A    between atoms: _329  and  _331
REMARK  141  A    between atoms: _331  and  _332
REMARK  142  A    between atoms: _331  and  _334
REMARK  143  A    between atoms: _334  and  _335
REMARK  144  A    between atoms: _335  and  _336
REMARK  145  A    between atoms: _341  and  _343
REMARK  146  A    between atoms: _343  and  _344
REMARK  147  A    between atoms: _346  and  _348
REMARK  148  A    between atoms: _348  and  _349
REMARK  149  A    between atoms: _348  and  _351
REMARK  150  A    between atoms: _351  and  _352
REMARK  151  A    between atoms: _355  and  _357
REMARK  152  A    between atoms: _357  and  _358
REMARK  153  A    between atoms: _357  and  _360
REMARK  154  A    between atoms: _360  and  _361
REMARK  155  A    between atoms: _363  and  _365
REMARK  156  A    between atoms: _365  and  _366
REMARK  157  A    between atoms: _368  and  _370
REMARK  158  A    between atoms: _370  and  _371
REMARK  159  A    between atoms: _373  and  _375
REMARK  160  A    between atoms: _375  and  _376
REMARK  161  A    between atoms: _375  and  _378
REMARK  162  A    between atoms: _378  and  _379
REMARK  163  A    between atoms: _384  and  _386
REMARK  164  A    between atoms: _386  and  _387
REMARK  165  A    between atoms: _386  and  _389
REMARK  166  A    between atoms: _389  and  _390
REMARK  167  A    between atoms: _393  and  _395
REMARK  168  A    between atoms: _395  and  _396
REMARK  169  A    between atoms: _395  and  _398
REMARK  170  A    between atoms: _401  and  _403
REMARK  171  A    between atoms: _403  and  _404
REMARK  172  A    between atoms: _403  and  _406
REMARK  173  A    between atoms: _406  and  _407
REMARK  174  A    between atoms: _409  and  _411
REMARK  175  A    between atoms: _411  and  _412
REMARK  176  A    between atoms: _411  and  _414
REMARK  177  A    between atoms: _414  and  _415
REMARK  178  A    between atoms: _425  and  _427
REMARK  179  A    between atoms: _427  and  _428
REMARK  180  A    between atoms: _430  and  _432
REMARK  181  A    between atoms: _432  and  _433
REMARK  182  A    between atoms: _432  and  _435
REMARK  183  A    between atoms: _435  and  _436
REMARK  184  A    between atoms: _436  and  _437
REMARK  185  A    between atoms: _440  and  _442
REMARK  186  A    between atoms: _442  and  _443
REMARK  187  A    between atoms: _445  and  _447
REMARK  188  A    between atoms: _447  and  _448
REMARK  189  A    between atoms: _447  and  _450
REMARK  190  A    between atoms: _450  and  _451
REMARK  191  A    between atoms: _452  and  _454
REMARK  192  A    between atoms: _454  and  _455
REMARK  193  A    between atoms: _458  and  _460
REMARK  194  A    between atoms: _460  and  _461
REMARK  195  A    between atoms: _460  and  _463
REMARK  196  A    between atoms: _463  and  _464
REMARK  197  A    between atoms: _464  and  _465
REMARK  198  A    between atoms: _465  and  _466
REMARK  199  A    between atoms: _475  and  _477
REMARK  200  A    between atoms: _477  and  _478
REMARK  201  A    between atoms: _477  and  _480
REMARK  202  A    between atoms: _480  and  _481
REMARK  203  A    between atoms: _481  and  _482
REMARK  204  A    between atoms: _482  and  _483
REMARK  205  A    between atoms: _483  and  _484
REMARK  206  A    between atoms: _488  and  _490
REMARK  207  A    between atoms: _490  and  _491
REMARK  208  A    between atoms: _490  and  _493
REMARK  209  A    between atoms: _493  and  _494
REMARK  210  A    between atoms: _499  and  _500
REMARK  211  A    between atoms: _502  and  _504
REMARK  212  A    between atoms: _504  and  _505
REMARK  213  A    between atoms: _507  and  _509
REMARK  214  A    between atoms: _509  and  _510
REMARK  215  A    between atoms: _509  and  _512
REMARK  216  A    between atoms: _512  and  _513
REMARK  217  A    between atoms: _516  and  _518
REMARK  218  A    between atoms: _518  and  _519
REMARK  219  A    between atoms: _518  and  _521
REMARK  220  A    between atoms: _521  and  _522
REMARK  221  A    between atoms: _527  and  _528
REMARK  222  A    between atoms: _530  and  _532
REMARK  223  A    between atoms: _532  and  _533
REMARK  224  A    between atoms: _532  and  _535
REMARK  225  A    between atoms: _535  and  _536
REMARK                            x       y       z     vdW  Elec       q    Type
REMARK                         _______ _______ _______ _____ _____    ______ ____
ROOT
ATOM      1  O   HOH     1      -1.250  11.821  14.929  0.00  0.00    +0.000 OA
ENDROOT
TORSDOF 0
REMARK  Name = ../refined-set-2016/2jkh/2jkh_pocket.pdb
REMARK  225 active torsions:
REMARK  status: ('A' for Active; 'I' for Inactive)
REMARK    1  A    between atoms: _1  and  _5
REMARK    2  A    between atoms: _5  and  _6
REMARK    3  A    between atoms: _5  and  _8
REMARK    4  A    between atoms: _8  and  _9
REMARK    5  A    between atoms: _12  and  _14
REMARK    6  A    between atoms: _14  and  _15
REMARK    7  A    between atoms: _14  and  _17
REMARK    8  A    between atoms: _20  and  _22
REMARK    9  A    between atoms: _22  and  _23
REMARK   10  A    between atoms: _22  and  _25
REMARK   11  A    between atoms: _25  and  _26
REMARK   12  A    between atoms: _32  and  _34
REMARK   13  A    between atoms: _34  and  _35
REMARK   14  A    between atoms: _34  and  _37
REMARK   15  A    between atoms: _37  and  _38
REMARK   16  A    between atoms: _43  and  _45
REMARK   17  A    between atoms: _45  and  _46
REMARK   18  A    between atoms: _45  and  _48
REMARK   19  A    between atoms: _48  and  _49
REMARK   20  A    between atoms: _49  and  _50
REMARK   21  A    between atoms: _55  and  _57
REMARK   22  A    between atoms: _57  and  _58
REMARK   23  A    between atoms: _57  and  _60
REMARK   24  A    between atoms: _60  and  _61
REMARK   25  A    between atoms: _67  and  _69
REMARK   26  A    between atoms: _69  and  _70
REMARK   27  A    between atoms: _69  and  _72
REMARK   28  A    between atoms: _72  and  _73
REMARK   29  A    between atoms: _76  and  _78
REMARK   30  A    between atoms: _78  and  _79
REMARK   31  A    between atoms: _78  and  _81
REMARK   32  A    between atoms: _81  and  _82
REMARK   33  A    between atoms: _82  and  _83
REMARK   34  A    between atoms: _83  and  _84
REMARK   35  A    between atoms: _84  and  _85
REMARK   36  A    between atoms: _89  and  _91
REMARK   37  A    between atoms: _91  and  _92
REMARK   38  A    between atoms: _91  and  _94
REMARK   39  A    between atoms: _94  and  _95
REMARK   40  A    between atoms: _95  and  _96
REMARK   41  A    between atoms: _99  and  _101
REMARK   42  A    between atoms: _101  and  _102
REMARK   43  A    between atoms: _101  and  _104
REMARK   44  A    between atoms: _104  and  _105
REMARK   45  A    between atoms: _108  and  _110
REMARK   46  A    between atoms: _110  and  _111
REMARK   47  A    between atoms: _110  and  _113
REMARK   48  A    between atoms: _113  and  _114
REMARK   49  A    between atoms: _119  and  _120
REMARK   50  A    between atoms: _122  and  _124
REMARK   51  A    between atoms: _124  and  _125
REMARK   52  A    between atoms: _124  and  _127
REMARK   53  A    between atoms: _127  and  _128
REMARK   54  A    between atoms: _131  and  _133
REMARK   55  A    between atoms: _133  and  _134
REMARK   56  A    between atoms: _133  and  _136
REMARK   57  A    between atoms: _136  and  _137
REMARK   58  A    between atoms: _140  and  _142
REMARK   59  A    between atoms: _142  and  _143
REMARK   60  A    between atoms: _142  and  _145
REMARK   61  A    between atoms: _148  and  _150
REMARK   62  A    between atoms: _150  and  _151
REMARK   63  A    between atoms: _150  and  _153
REMARK   64  A    between atoms: _153  and  _154
REMARK   65  A    between atoms: _154  and  _155
REMARK   66  A    between atoms: _155  and  _156
REMARK   67  A    between atoms: _165  and  _167
REMARK   68  A    between atoms: _167  and  _168
REMARK   69  A    between atoms: _167  and  _170
REMARK   70  A    between atoms: _170  and  _171
REMARK   71  A    between atoms: _176  and  _178
REMARK   72  A    between atoms: _178  and  _179
REMARK   73  A    between atoms: _178  and  _181
REMARK   74  A    between atoms: _181  and  _182
REMARK   75  A    between atoms: _182  and  _183
REMARK   76  A    between atoms: _186  and  _188
REMARK   77  A    between atoms: _188  and  _189
REMARK   78  A    between atoms: _188  and  _191
REMARK   79  A    between atoms: _191  and  _192
REMARK   80  A    between atoms: _192  and  _193
REMARK   81  A    between atoms: _193  and  _194
REMARK   82  A    between atoms: _194  and  _195
REMARK   83  A    between atoms: _199  and  _201
REMARK   84  A    between atoms: _201  and  _202
REMARK   85  A    between atoms: _204  and  _206
REMARK   86  A    between atoms: _206  and  _207
REMARK   87  A    between atoms: _206  and  _209
REMARK   88  A    between atoms: _212  and  _214
REMARK   89  A    between atoms: _214  and  _215
REMARK   90  A    between atoms: _214  and  _217
REMARK   91  A    between atoms: _217  and  _218
REMARK   92  A    between atoms: _220  and  _222
REMARK   93  A    between atoms: _222  and  _223
REMARK   94  A    between atoms: _222  and  _225
REMARK   95  A    between atoms: _225  and  _226
REMARK   96  A    between atoms: _228  and  _230
REMARK   97  A    between atoms: _230  and  _231
REMARK   98  A    between atoms: _230  and  _233
REMARK   99  A    between atoms: _233  and  _234
REMARK  100  A    between atoms: _240  and  _242
REMARK  101  A    between atoms: _242  and  _243
REMARK  102  A    between atoms: _242  and  _245
REMARK  103  A    between atoms: _245  and  _246
REMARK  104  A    between atoms: _249  and  _251
REMARK  105  A    between atoms: _251  and  _252
REMARK  106  A    between atoms: _251  and  _254
REMARK  107  A    between atoms: _254  and  _255
REMARK  108  A    between atoms: _258  and  _260
REMARK  109  A    between atoms: _260  and  _261
REMARK  110  A    between atoms: _260  and  _263
REMARK  111  A    between atoms: _263  and  _264
REMARK  112  A    between atoms: _264  and  _265
REMARK  113  A    between atoms: _267  and  _269
REMARK  114  A    between atoms: _269  and  _270
REMARK  115  A    between atoms: _269  and  _272
REMARK  116  A    between atoms: _272  and  _273
REMARK  117  A    between atoms: _279  and  _281
REMARK  118  A    between atoms: _281  and  _282
REMARK  119  A    between atoms: _281  and  _284
REMARK  120  A    between atoms: _286  and  _288
REMARK  121  A    between atoms: _288  and  _289
REMARK  122  A    between atoms: _292  and  _294
REMARK  123  A    between atoms: _294  and  _295
REMARK  124  A    between atoms: _297  and  _299
REMARK  125  A    between atoms: _299  and  _300
REMARK  126  A    between atoms: _299  and  _302
REMARK  127  A    between atoms: _302  and  _303
REMARK  128  A    between atoms: _303  and  _304
REMARK  129  A    between atoms: _307  and  _309
REMARK  130  A    between atoms: _309  and  _310
REMARK  131  A    between atoms: _309  and  _312
REMARK  132  A    between atoms: _312  and  _313
REMARK  133  A    between atoms: _316  and  _318
REMARK  134  A    between atoms: _318  and  _319
REMARK  135  A    between atoms: _322  and  _324
REMARK  136  A    between atoms: _324  and  _325
REMARK  137  A    between atoms: _324  and  _327
REMARK  138  A    between atoms: _327  and  _328
REMARK  139  A    between atoms: _328  and  _451
REMARK  140  A    between atoms: _329  and  _331
REMARK  141  A    between atoms: _331  and  _332
REMARK  142  A    between atoms: _331  and  _334
REMARK  143  A    between atoms: _334  and  _335
REMARK  144  A    between atoms: _335  and  _336
REMARK  145  A    between atoms: _341  and  _343
REMARK  146  A    between atoms: _343  and  _344
REMARK  147  A    between atoms: _346  and  _348
REMARK  148  A    between atoms: _348  and  _349
REMARK  149  A    between atoms: _348  and  _351
REMARK  150  A    between atoms: _351  and  _352
REMARK  151  A    between atoms: _355  and  _357
REMARK  152  A    between atoms: _357  and  _358
REMARK  153  A    between atoms: _357  and  _360
REMARK  154  A    between atoms: _360  and  _361
REMARK  155  A    between atoms: _363  and  _365
REMARK  156  A    between atoms: _365  and  _366
REMARK  157  A    between atoms: _368  and  _370
REMARK  158  A    between atoms: _370  and  _371
REMARK  159  A    between atoms: _373  and  _375
REMARK  160  A    between atoms: _375  and  _376
REMARK  161  A    between atoms: _375  and  _378
REMARK  162  A    between atoms: _378  and  _379
REMARK  163  A    between atoms: _384  and  _386
REMARK  164  A    between atoms: _386  and  _387
REMARK  165  A    between atoms: _386  and  _389
REMARK  166  A    between atoms: _389  and  _390
REMARK  167  A    between atoms: _393  and  _395
REMARK  168  A    between atoms: _395  and  _396
REMARK  169  A    between atoms: _395  and  _398
REMARK  170  A    between atoms: _401  and  _403
REMARK  171  A    between atoms: _403  and  _404
REMARK  172  A    between atoms: _403  and  _406
REMARK  173  A    between atoms: _406  and  _407
REMARK  174  A    between atoms: _409  and  _411
REMARK  175  A    between atoms: _411  and  _412
REMARK  176  A    between atoms: _411  and  _414
REMARK  177  A    between atoms: _414  and  _415
REMARK  178  A    between atoms: _425  and  _427
REMARK  179  A    between atoms: _427  and  _428
REMARK  180  A    between atoms: _430  and  _432
REMARK  181  A    between atoms: _432  and  _433
REMARK  182  A    between atoms: _432  and  _435
REMARK  183  A    between atoms: _435  and  _436
REMARK  184  A    between atoms: _436  and  _437
REMARK  185  A    between atoms: _440  and  _442
REMARK  186  A    between atoms: _442  and  _443
REMARK  187  A    between atoms: _445  and  _447
REMARK  188  A    between atoms: _447  and  _448
REMARK  189  A    between atoms: _447  and  _450
REMARK  190  A    between atoms: _450  and  _451
REMARK  191  A    between atoms: _452  and  _454
REMARK  192  A    between atoms: _454  and  _455
REMARK  193  A    between atoms: _458  and  _460
REMARK  194  A    between atoms: _460  and  _461
REMARK  195  A    between atoms: _460  and  _463
REMARK  196  A    between atoms: _463  and  _464
REMARK  197  A    between atoms: _464  and  _465
REMARK  198  A    between atoms: _465  and  _466
REMARK  199  A    between atoms: _475  and  _477
REMARK  200  A    between atoms: _477  and  _478
REMARK  201  A    between atoms: _477  and  _480
REMARK  202  A    between atoms: _480  and  _481
REMARK  203  A    between atoms: _481  and  _482
REMARK  204  A    between atoms: _482  and  _483
REMARK  205  A    between atoms: _483  and  _484
REMARK  206  A    between atoms: _488  and  _490
REMARK  207  A    between atoms: _490  and  _491
REMARK  208  A    between atoms: _490  and  _493
REMARK  209  A    between atoms: _493  and  _494
REMARK  210  A    between atoms: _499  and  _500
REMARK  211  A    between atoms: _502  and  _504
REMARK  212  A    between atoms: _504  and  _505
REMARK  213  A    between atoms: _507  and  _509
REMARK  214  A    between atoms: _509  and  _510
REMARK  215  A    between atoms: _509  and  _512
REMARK  216  A    between atoms: _512  and  _513
REMARK  217  A    between atoms: _516  and  _518
REMARK  218  A    between atoms: _518  and  _519
REMARK  219  A    between atoms: _518  and  _521
REMARK  220  A    between atoms: _521  and  _522
REMARK  221  A    between atoms: _527  and  _528
REMARK  222  A    between atoms: _530  and  _532
REMARK  223  A    between atoms: _532  and  _533
REMARK  224  A    between atoms: _532  and  _535
REMARK  225  A    between atoms: _535  and  _536
REMARK                            x       y       z     vdW  Elec       q    Type
REMARK                         _______ _______ _______ _____ _____    ______ ____
ROOT
ATOM      1  O   HOH     1      -0.494   1.737  19.636  0.00  0.00    +0.000 OA
ENDROOT
TORSDOF 0
REMARK  Name = ../refined-set-2016/2jkh/2jkh_pocket.pdb
REMARK  225 active torsions:
REMARK  status: ('A' for Active; 'I' for Inactive)
REMARK    1  A    between atoms: _1  and  _5
REMARK    2  A    between atoms: _5  and  _6
REMARK    3  A    between atoms: _5  and  _8
REMARK    4  A    between atoms: _8  and  _9
REMARK    5  A    between atoms: _12  and  _14
REMARK    6  A    between atoms: _14  and  _15
REMARK    7  A    between atoms: _14  and  _17
REMARK    8  A    between atoms: _20  and  _22
REMARK    9  A    between atoms: _22  and  _23
REMARK   10  A    between atoms: _22  and  _25
REMARK   11  A    between atoms: _25  and  _26
REMARK   12  A    between atoms: _32  and  _34
REMARK   13  A    between atoms: _34  and  _35
REMARK   14  A    between atoms: _34  and  _37
REMARK   15  A    between atoms: _37  and  _38
REMARK   16  A    between atoms: _43  and  _45
REMARK   17  A    between atoms: _45  and  _46
REMARK   18  A    between atoms: _45  and  _48
REMARK   19  A    between atoms: _48  and  _49
REMARK   20  A    between atoms: _49  and  _50
REMARK   21  A    between atoms: _55  and  _57
REMARK   22  A    between atoms: _57  and  _58
REMARK   23  A    between atoms: _57  and  _60
REMARK   24  A    between atoms: _60  and  _61
REMARK   25  A    between atoms: _67  and  _69
REMARK   26  A    between atoms: _69  and  _70
REMARK   27  A    between atoms: _69  and  _72
REMARK   28  A    between atoms: _72  and  _73
REMARK   29  A    between atoms: _76  and  _78
REMARK   30  A    between atoms: _78  and  _79
REMARK   31  A    between atoms: _78  and  _81
REMARK   32  A    between atoms: _81  and  _82
REMARK   33  A    between atoms: _82  and  _83
REMARK   34  A    between atoms: _83  and  _84
REMARK   35  A    between atoms: _84  and  _85
REMARK   36  A    between atoms: _89  and  _91
REMARK   37  A    between atoms: _91  and  _92
REMARK   38  A    between atoms: _91  and  _94
REMARK   39  A    between atoms: _94  and  _95
REMARK   40  A    between atoms: _95  and  _96
REMARK   41  A    between atoms: _99  and  _101
REMARK   42  A    between atoms: _101  and  _102
REMARK   43  A    between atoms: _101  and  _104
REMARK   44  A    between atoms: _104  and  _105
REMARK   45  A    between atoms: _108  and  _110
REMARK   46  A    between atoms: _110  and  _111
REMARK   47  A    between atoms: _110  and  _113
REMARK   48  A    between atoms: _113  and  _114
REMARK   49  A    between atoms: _119  and  _120
REMARK   50  A    between atoms: _122  and  _124
REMARK   51  A    between atoms: _124  and  _125
REMARK   52  A    between atoms: _124  and  _127
REMARK   53  A    between atoms: _127  and  _128
REMARK   54  A    between atoms: _131  and  _133
REMARK   55  A    between atoms: _133  and  _134
REMARK   56  A    between atoms: _133  and  _136
REMARK   57  A    between atoms: _136  and  _137
REMARK   58  A    between atoms: _140  and  _142
REMARK   59  A    between atoms: _142  and  _143
REMARK   60  A    between atoms: _142  and  _145
REMARK   61  A    between atoms: _148  and  _150
REMARK   62  A    between atoms: _150  and  _151
REMARK   63  A    between atoms: _150  and  _153
REMARK   64  A    between atoms: _153  and  _154
REMARK   65  A    between atoms: _154  and  _155
REMARK   66  A    between atoms: _155  and  _156
REMARK   67  A    between atoms: _165  and  _167
REMARK   68  A    between atoms: _167  and  _168
REMARK   69  A    between atoms: _167  and  _170
REMARK   70  A    between atoms: _170  and  _171
REMARK   71  A    between atoms: _176  and  _178
REMARK   72  A    between atoms: _178  and  _179
REMARK   73  A    between atoms: _178  and  _181
REMARK   74  A    between atoms: _181  and  _182
REMARK   75  A    between atoms: _182  and  _183
REMARK   76  A    between atoms: _186  and  _188
REMARK   77  A    between atoms: _188  and  _189
REMARK   78  A    between atoms: _188  and  _191
REMARK   79  A    between atoms: _191  and  _192
REMARK   80  A    between atoms: _192  and  _193
REMARK   81  A    between atoms: _193  and  _194
REMARK   82  A    between atoms: _194  and  _195
REMARK   83  A    between atoms: _199  and  _201
REMARK   84  A    between atoms: _201  and  _202
REMARK   85  A    between atoms: _204  and  _206
REMARK   86  A    between atoms: _206  and  _207
REMARK   87  A    between atoms: _206  and  _209
REMARK   88  A    between atoms: _212  and  _214
REMARK   89  A    between atoms: _214  and  _215
REMARK   90  A    between atoms: _214  and  _217
REMARK   91  A    between atoms: _217  and  _218
REMARK   92  A    between atoms: _220  and  _222
REMARK   93  A    between atoms: _222  and  _223
REMARK   94  A    between atoms: _222  and  _225
REMARK   95  A    between atoms: _225  and  _226
REMARK   96  A    between atoms: _228  and  _230
REMARK   97  A    between atoms: _230  and  _231
REMARK   98  A    between atoms: _230  and  _233
REMARK   99  A    between atoms: _233  and  _234
REMARK  100  A    between atoms: _240  and  _242
REMARK  101  A    between atoms: _242  and  _243
REMARK  102  A    between atoms: _242  and  _245
REMARK  103  A    between atoms: _245  and  _246
REMARK  104  A    between atoms: _249  and  _251
REMARK  105  A    between atoms: _251  and  _252
REMARK  106  A    between atoms: _251  and  _254
REMARK  107  A    between atoms: _254  and  _255
REMARK  108  A    between atoms: _258  and  _260
REMARK  109  A    between atoms: _260  and  _261
REMARK  110  A    between atoms: _260  and  _263
REMARK  111  A    between atoms: _263  and  _264
REMARK  112  A    between atoms: _264  and  _265
REMARK  113  A    between atoms: _267  and  _269
REMARK  114  A    between atoms: _269  and  _270
REMARK  115  A    between atoms: _269  and  _272
REMARK  116  A    between atoms: _272  and  _273
REMARK  117  A    between atoms: _279  and  _281
REMARK  118  A    between atoms: _281  and  _282
REMARK  119  A    between atoms: _281  and  _284
REMARK  120  A    between atoms: _286  and  _288
REMARK  121  A    between atoms: _288  and  _289
REMARK  122  A    between atoms: _292  and  _294
REMARK  123  A    between atoms: _294  and  _295
REMARK  124  A    between atoms: _297  and  _299
REMARK  125  A    between atoms: _299  and  _300
REMARK  126  A    between atoms: _299  and  _302
REMARK  127  A    between atoms: _302  and  _303
REMARK  128  A    between atoms: _303  and  _304
REMARK  129  A    between atoms: _307  and  _309
REMARK  130  A    between atoms: _309  and  _310
REMARK  131  A    between atoms: _309  and  _312
REMARK  132  A    between atoms: _312  and  _313
REMARK  133  A    between atoms: _316  and  _318
REMARK  134  A    between atoms: _318  and  _319
REMARK  135  A    between atoms: _322  and  _324
REMARK  136  A    between atoms: _324  and  _325
REMARK  137  A    between atoms: _324  and  _327
REMARK  138  A    between atoms: _327  and  _328
REMARK  139  A    between atoms: _328  and  _451
REMARK  140  A    between atoms: _329  and  _331
REMARK  141  A    between atoms: _331  and  _332
REMARK  142  A    between atoms: _331  and  _334
REMARK  143  A    between atoms: _334  and  _335
REMARK  144  A    between atoms: _335  and  _336
REMARK  145  A    between atoms: _341  and  _343
REMARK  146  A    between atoms: _343  and  _344
REMARK  147  A    between atoms: _346  and  _348
REMARK  148  A    between atoms: _348  and  _349
REMARK  149  A    between atoms: _348  and  _351
REMARK  150  A    between atoms: _351  and  _352
REMARK  151  A    between atoms: _355  and  _357
REMARK  152  A    between atoms: _357  and  _358
REMARK  153  A    between atoms: _357  and  _360
REMARK  154  A    between atoms: _360  and  _361
REMARK  155  A    between atoms: _363  and  _365
REMARK  156  A    between atoms: _365  and  _366
REMARK  157  A    between atoms: _368  and  _370
REMARK  158  A    between atoms: _370  and  _371
REMARK  159  A    between atoms: _373  and  _375
REMARK  160  A    between atoms: _375  and  _376
REMARK  161  A    between atoms: _375  and  _378
REMARK  162  A    between atoms: _378  and  _379
REMARK  163  A    between atoms: _384  and  _386
REMARK  164  A    between atoms: _386  and  _387
REMARK  165  A    between atoms: _386  and  _389
REMARK  166  A    between atoms: _389  and  _390
REMARK  167  A    between atoms: _393  and  _395
REMARK  168  A    between atoms: _395  and  _396
REMARK  169  A    between atoms: _395  and  _398
REMARK  170  A    between atoms: _401  and  _403
REMARK  171  A    between atoms: _403  and  _404
REMARK  172  A    between atoms: _403  and  _406
REMARK  173  A    between atoms: _406  and  _407
REMARK  174  A    between atoms: _409  and  _411
REMARK  175  A    between atoms: _411  and  _412
REMARK  176  A    between atoms: _411  and  _414
REMARK  177  A    between atoms: _414  and  _415
REMARK  178  A    between atoms: _425  and  _427
REMARK  179  A    between atoms: _427  and  _428
REMARK  180  A    between atoms: _430  and  _432
REMARK  181  A    between atoms: _432  and  _433
REMARK  182  A    between atoms: _432  and  _435
REMARK  183  A    between atoms: _435  and  _436
REMARK  184  A    between atoms: _436  and  _437
REMARK  185  A    between atoms: _440  and  _442
REMARK  186  A    between atoms: _442  and  _443
REMARK  187  A    between atoms: _445  and  _447
REMARK  188  A    between atoms: _447  and  _448
REMARK  189  A    between atoms: _447  and  _450
REMARK  190  A    between atoms: _450  and  _451
REMARK  191  A    between atoms: _452  and  _454
REMARK  192  A    between atoms: _454  and  _455
REMARK  193  A    between atoms: _458  and  _460
REMARK  194  A    between atoms: _460  and  _461
REMARK  195  A    between atoms: _460  and  _463
REMARK  196  A    between atoms: _463  and  _464
REMARK  197  A    between atoms: _464  and  _465
REMARK  198  A    between atoms: _465  and  _466
REMARK  199  A    between atoms: _475  and  _477
REMARK  200  A    between atoms: _477  and  _478
REMARK  201  A    between atoms: _477  and  _480
REMARK  202  A    between atoms: _480  and  _481
REMARK  203  A    between atoms: _481  and  _482
REMARK  204  A    between atoms: _482  and  _483
REMARK  205  A    between atoms: _483  and  _484
REMARK  206  A    between atoms: _488  and  _490
REMARK  207  A    between atoms: _490  and  _491
REMARK  208  A    between atoms: _490  and  _493
REMARK  209  A    between atoms: _493  and  _494
REMARK  210  A    between atoms: _499  and  _500
REMARK  211  A    between atoms: _502  and  _504
REMARK  212  A    between atoms: _504  and  _505
REMARK  213  A    between atoms: _507  and  _509
REMARK  214  A    between atoms: _509  and  _510
REMARK  215  A    between atoms: _509  and  _512
REMARK  216  A    between atoms: _512  and  _513
REMARK  217  A    between atoms: _516  and  _518
REMARK  218  A    between atoms: _518  and  _519
REMARK  219  A    between atoms: _518  and  _521
REMARK  220  A    between atoms: _521  and  _522
REMARK  221  A    between atoms: _527  and  _528
REMARK  222  A    between atoms: _530  and  _532
REMARK  223  A    between atoms: _532  and  _533
REMARK  224  A    between atoms: _532  and  _535
REMARK  225  A    between atoms: _535  and  _536
REMARK                            x       y       z     vdW  Elec       q    Type
REMARK                         _______ _______ _______ _____ _____    ______ ____
ROOT
ATOM      1  O   HOH     1      -3.648  19.324  23.256  0.00  0.00    +0.000 OA
ENDROOT
TORSDOF 0
REMARK  Name = ../refined-set-2016/2jkh/2jkh_pocket.pdb
REMARK  225 active torsions:
REMARK  status: ('A' for Active; 'I' for Inactive)
REMARK    1  A    between atoms: _1  and  _5
REMARK    2  A    between atoms: _5  and  _6
REMARK    3  A    between atoms: _5  and  _8
REMARK    4  A    between atoms: _8  and  _9
REMARK    5  A    between atoms: _12  and  _14
REMARK    6  A    between atoms: _14  and  _15
REMARK    7  A    between atoms: _14  and  _17
REMARK    8  A    between atoms: _20  and  _22
REMARK    9  A    between atoms: _22  and  _23
REMARK   10  A    between atoms: _22  and  _25
REMARK   11  A    between atoms: _25  and  _26
REMARK   12  A    between atoms: _32  and  _34
REMARK   13  A    between atoms: _34  and  _35
REMARK   14  A    between atoms: _34  and  _37
REMARK   15  A    between atoms: _37  and  _38
REMARK   16  A    between atoms: _43  and  _45
REMARK   17  A    between atoms: _45  and  _46
REMARK   18  A    between atoms: _45  and  _48
REMARK   19  A    between atoms: _48  and  _49
REMARK   20  A    between atoms: _49  and  _50
REMARK   21  A    between atoms: _55  and  _57
REMARK   22  A    between atoms: _57  and  _58
REMARK   23  A    between atoms: _57  and  _60
REMARK   24  A    between atoms: _60  and  _61
REMARK   25  A    between atoms: _67  and  _69
REMARK   26  A    between atoms: _69  and  _70
REMARK   27  A    between atoms: _69  and  _72
REMARK   28  A    between atoms: _72  and  _73
REMARK   29  A    between atoms: _76  and  _78
REMARK   30  A    between atoms: _78  and  _79
REMARK   31  A    between atoms: _78  and  _81
REMARK   32  A    between atoms: _81  and  _82
REMARK   33  A    between atoms: _82  and  _83
REMARK   34  A    between atoms: _83  and  _84
REMARK   35  A    between atoms: _84  and  _85
REMARK   36  A    between atoms: _89  and  _91
REMARK   37  A    between atoms: _91  and  _92
REMARK   38  A    between atoms: _91  and  _94
REMARK   39  A    between atoms: _94  and  _95
REMARK   40  A    between atoms: _95  and  _96
REMARK   41  A    between atoms: _99  and  _101
REMARK   42  A    between atoms: _101  and  _102
REMARK   43  A    between atoms: _101  and  _104
REMARK   44  A    between atoms: _104  and  _105
REMARK   45  A    between atoms: _108  and  _110
REMARK   46  A    between atoms: _110  and  _111
REMARK   47  A    between atoms: _110  and  _113
REMARK   48  A    between atoms: _113  and  _114
REMARK   49  A    between atoms: _119  and  _120
REMARK   50  A    between atoms: _122  and  _124
REMARK   51  A    between atoms: _124  and  _125
REMARK   52  A    between atoms: _124  and  _127
REMARK   53  A    between atoms: _127  and  _128
REMARK   54  A    between atoms: _131  and  _133
REMARK   55  A    between atoms: _133  and  _134
REMARK   56  A    between atoms: _133  and  _136
REMARK   57  A    between atoms: _136  and  _137
REMARK   58  A    between atoms: _140  and  _142
REMARK   59  A    between atoms: _142  and  _143
REMARK   60  A    between atoms: _142  and  _145
REMARK   61  A    between atoms: _148  and  _150
REMARK   62  A    between atoms: _150  and  _151
REMARK   63  A    between atoms: _150  and  _153
REMARK   64  A    between atoms: _153  and  _154
REMARK   65  A    between atoms: _154  and  _155
REMARK   66  A    between atoms: _155  and  _156
REMARK   67  A    between atoms: _165  and  _167
REMARK   68  A    between atoms: _167  and  _168
REMARK   69  A    between atoms: _167  and  _170
REMARK   70  A    between atoms: _170  and  _171
REMARK   71  A    between atoms: _176  and  _178
REMARK   72  A    between atoms: _178  and  _179
REMARK   73  A    between atoms: _178  and  _181
REMARK   74  A    between atoms: _181  and  _182
REMARK   75  A    between atoms: _182  and  _183
REMARK   76  A    between atoms: _186  and  _188
REMARK   77  A    between atoms: _188  and  _189
REMARK   78  A    between atoms: _188  and  _191
REMARK   79  A    between atoms: _191  and  _192
REMARK   80  A    between atoms: _192  and  _193
REMARK   81  A    between atoms: _193  and  _194
REMARK   82  A    between atoms: _194  and  _195
REMARK   83  A    between atoms: _199  and  _201
REMARK   84  A    between atoms: _201  and  _202
REMARK   85  A    between atoms: _204  and  _206
REMARK   86  A    between atoms: _206  and  _207
REMARK   87  A    between atoms: _206  and  _209
REMARK   88  A    between atoms: _212  and  _214
REMARK   89  A    between atoms: _214  and  _215
REMARK   90  A    between atoms: _214  and  _217
REMARK   91  A    between atoms: _217  and  _218
REMARK   92  A    between atoms: _220  and  _222
REMARK   93  A    between atoms: _222  and  _223
REMARK   94  A    between atoms: _222  and  _225
REMARK   95  A    between atoms: _225  and  _226
REMARK   96  A    between atoms: _228  and  _230
REMARK   97  A    between atoms: _230  and  _231
REMARK   98  A    between atoms: _230  and  _233
REMARK   99  A    between atoms: _233  and  _234
REMARK  100  A    between atoms: _240  and  _242
REMARK  101  A    between atoms: _242  and  _243
REMARK  102  A    between atoms: _242  and  _245
REMARK  103  A    between atoms: _245  and  _246
REMARK  104  A    between atoms: _249  and  _251
REMARK  105  A    between atoms: _251  and  _252
REMARK  106  A    between atoms: _251  and  _254
REMARK  107  A    between atoms: _254  and  _255
REMARK  108  A    between atoms: _258  and  _260
REMARK  109  A    between atoms: _260  and  _261
REMARK  110  A    between atoms: _260  and  _263
REMARK  111  A    between atoms: _263  and  _264
REMARK  112  A    between atoms: _264  and  _265
REMARK  113  A    between atoms: _267  and  _269
REMARK  114  A    between atoms: _269  and  _270
REMARK  115  A    between atoms: _269  and  _272
REMARK  116  A    between atoms: _272  and  _273
REMARK  117  A    between atoms: _279  and  _281
REMARK  118  A    between atoms: _281  and  _282
REMARK  119  A    between atoms: _281  and  _284
REMARK  120  A    between atoms: _286  and  _288
REMARK  121  A    between atoms: _288  and  _289
REMARK  122  A    between atoms: _292  and  _294
REMARK  123  A    between atoms: _294  and  _295
REMARK  124  A    between atoms: _297  and  _299
REMARK  125  A    between atoms: _299  and  _300
REMARK  126  A    between atoms: _299  and  _302
REMARK  127  A    between atoms: _302  and  _303
REMARK  128  A    between atoms: _303  and  _304
REMARK  129  A    between atoms: _307  and  _309
REMARK  130  A    between atoms: _309  and  _310
REMARK  131  A    between atoms: _309  and  _312
REMARK  132  A    between atoms: _312  and  _313
REMARK  133  A    between atoms: _316  and  _318
REMARK  134  A    between atoms: _318  and  _319
REMARK  135  A    between atoms: _322  and  _324
REMARK  136  A    between atoms: _324  and  _325
REMARK  137  A    between atoms: _324  and  _327
REMARK  138  A    between atoms: _327  and  _328
REMARK  139  A    between atoms: _328  and  _451
REMARK  140  A    between atoms: _329  and  _331
REMARK  141  A    between atoms: _331  and  _332
REMARK  142  A    between atoms: _331  and  _334
REMARK  143  A    between atoms: _334  and  _335
REMARK  144  A    between atoms: _335  and  _336
REMARK  145  A    between atoms: _341  and  _343
REMARK  146  A    between atoms: _343  and  _344
REMARK  147  A    between atoms: _346  and  _348
REMARK  148  A    between atoms: _348  and  _349
REMARK  149  A    between atoms: _348  and  _351
REMARK  150  A    between atoms: _351  and  _352
REMARK  151  A    between atoms: _355  and  _357
REMARK  152  A    between atoms: _357  and  _358
REMARK  153  A    between atoms: _357  and  _360
REMARK  154  A    between atoms: _360  and  _361
REMARK  155  A    between atoms: _363  and  _365
REMARK  156  A    between atoms: _365  and  _366
REMARK  157  A    between atoms: _368  and  _370
REMARK  158  A    between atoms: _370  and  _371
REMARK  159  A    between atoms: _373  and  _375
REMARK  160  A    between atoms: _375  and  _376
REMARK  161  A    between atoms: _375  and  _378
REMARK  162  A    between atoms: _378  and  _379
REMARK  163  A    between atoms: _384  and  _386
REMARK  164  A    between atoms: _386  and  _387
REMARK  165  A    between atoms: _386  and  _389
REMARK  166  A    between atoms: _389  and  _390
REMARK  167  A    between atoms: _393  and  _395
REMARK  168  A    between atoms: _395  and  _396
REMARK  169  A    between atoms: _395  and  _398
REMARK  170  A    between atoms: _401  and  _403
REMARK  171  A    between atoms: _403  and  _404
REMARK  172  A    between atoms: _403  and  _406
REMARK  173  A    between atoms: _406  and  _407
REMARK  174  A    between atoms: _409  and  _411
REMARK  175  A    between atoms: _411  and  _412
REMARK  176  A    between atoms: _411  and  _414
REMARK  177  A    between atoms: _414  and  _415
REMARK  178  A    between atoms: _425  and  _427
REMARK  179  A    between atoms: _427  and  _428
REMARK  180  A    between atoms: _430  and  _432
REMARK  181  A    between atoms: _432  and  _433
REMARK  182  A    between atoms: _432  and  _435
REMARK  183  A    between atoms: _435  and  _436
REMARK  184  A    between atoms: _436  and  _437
REMARK  185  A    between atoms: _440  and  _442
REMARK  186  A    between atoms: _442  and  _443
REMARK  187  A    between atoms: _445  and  _447
REMARK  188  A    between atoms: _447  and  _448
REMARK  189  A    between atoms: _447  and  _450
REMARK  190  A    between atoms: _450  and  _451
REMARK  191  A    between atoms: _452  and  _454
REMARK  192  A    between atoms: _454  and  _455
REMARK  193  A    between atoms: _458  and  _460
REMARK  194  A    between atoms: _460  and  _461
REMARK  195  A    between atoms: _460  and  _463
REMARK  196  A    between atoms: _463  and  _464
REMARK  197  A    between atoms: _464  and  _465
REMARK  198  A    between atoms: _465  and  _466
REMARK  199  A    between atoms: _475  and  _477
REMARK  200  A    between atoms: _477  and  _478
REMARK  201  A    between atoms: _477  and  _480
REMARK  202  A    between atoms: _480  and  _481
REMARK  203  A    between atoms: _481  and  _482
REMARK  204  A    between atoms: _482  and  _483
REMARK  205  A    between atoms: _483  and  _484
REMARK  206  A    between atoms: _488  and  _490
REMARK  207  A    between atoms: _490  and  _491
REMARK  208  A    between atoms: _490  and  _493
REMARK  209  A    between atoms: _493  and  _494
REMARK  210  A    between atoms: _499  and  _500
REMARK  211  A    between atoms: _502  and  _504
REMARK  212  A    between atoms: _504  and  _505
REMARK  213  A    between atoms: _507  and  _509
REMARK  214  A    between atoms: _509  and  _510
REMARK  215  A    between atoms: _509  and  _512
REMARK  216  A    between atoms: _512  and  _513
REMARK  217  A    between atoms: _516  and  _518
REMARK  218  A    between atoms: _518  and  _519
REMARK  219  A    between atoms: _518  and  _521
REMARK  220  A    between atoms: _521  and  _522
REMARK  221  A    between atoms: _527  and  _528
REMARK  222  A    between atoms: _530  and  _532
REMARK  223  A    between atoms: _532  and  _533
REMARK  224  A    between atoms: _532  and  _535
REMARK  225  A    between atoms: _535  and  _536
REMARK                            x       y       z     vdW  Elec       q    Type
REMARK                         _______ _______ _______ _____ _____    ______ ____
ROOT
ATOM      1  O   HOH     1      -5.296  19.109  24.622  0.00  0.00    +0.000 OA
ENDROOT
TORSDOF 0
REMARK  Name = ../refined-set-2016/2jkh/2jkh_pocket.pdb
REMARK  225 active torsions:
REMARK  status: ('A' for Active; 'I' for Inactive)
REMARK    1  A    between atoms: _1  and  _5
REMARK    2  A    between atoms: _5  and  _6
REMARK    3  A    between atoms: _5  and  _8
REMARK    4  A    between atoms: _8  and  _9
REMARK    5  A    between atoms: _12  and  _14
REMARK    6  A    between atoms: _14  and  _15
REMARK    7  A    between atoms: _14  and  _17
REMARK    8  A    between atoms: _20  and  _22
REMARK    9  A    between atoms: _22  and  _23
REMARK   10  A    between atoms: _22  and  _25
REMARK   11  A    between atoms: _25  and  _26
REMARK   12  A    between atoms: _32  and  _34
REMARK   13  A    between atoms: _34  and  _35
REMARK   14  A    between atoms: _34  and  _37
REMARK   15  A    between atoms: _37  and  _38
REMARK   16  A    between atoms: _43  and  _45
REMARK   17  A    between atoms: _45  and  _46
REMARK   18  A    between atoms: _45  and  _48
REMARK   19  A    between atoms: _48  and  _49
REMARK   20  A    between atoms: _49  and  _50
REMARK   21  A    between atoms: _55  and  _57
REMARK   22  A    between atoms: _57  and  _58
REMARK   23  A    between atoms: _57  and  _60
REMARK   24  A    between atoms: _60  and  _61
REMARK   25  A    between atoms: _67  and  _69
REMARK   26  A    between atoms: _69  and  _70
REMARK   27  A    between atoms: _69  and  _72
REMARK   28  A    between atoms: _72  and  _73
REMARK   29  A    between atoms: _76  and  _78
REMARK   30  A    between atoms: _78  and  _79
REMARK   31  A    between atoms: _78  and  _81
REMARK   32  A    between atoms: _81  and  _82
REMARK   33  A    between atoms: _82  and  _83
REMARK   34  A    between atoms: _83  and  _84
REMARK   35  A    between atoms: _84  and  _85
REMARK   36  A    between atoms: _89  and  _91
REMARK   37  A    between atoms: _91  and  _92
REMARK   38  A    between atoms: _91  and  _94
REMARK   39  A    between atoms: _94  and  _95
REMARK   40  A    between atoms: _95  and  _96
REMARK   41  A    between atoms: _99  and  _101
REMARK   42  A    between atoms: _101  and  _102
REMARK   43  A    between atoms: _101  and  _104
REMARK   44  A    between atoms: _104  and  _105
REMARK   45  A    between atoms: _108  and  _110
REMARK   46  A    between atoms: _110  and  _111
REMARK   47  A    between atoms: _110  and  _113
REMARK   48  A    between atoms: _113  and  _114
REMARK   49  A    between atoms: _119  and  _120
REMARK   50  A    between atoms: _122  and  _124
REMARK   51  A    between atoms: _124  and  _125
REMARK   52  A    between atoms: _124  and  _127
REMARK   53  A    between atoms: _127  and  _128
REMARK   54  A    between atoms: _131  and  _133
REMARK   55  A    between atoms: _133  and  _134
REMARK   56  A    between atoms: _133  and  _136
REMARK   57  A    between atoms: _136  and  _137
REMARK   58  A    between atoms: _140  and  _142
REMARK   59  A    between atoms: _142  and  _143
REMARK   60  A    between atoms: _142  and  _145
REMARK   61  A    between atoms: _148  and  _150
REMARK   62  A    between atoms: _150  and  _151
REMARK   63  A    between atoms: _150  and  _153
REMARK   64  A    between atoms: _153  and  _154
REMARK   65  A    between atoms: _154  and  _155
REMARK   66  A    between atoms: _155  and  _156
REMARK   67  A    between atoms: _165  and  _167
REMARK   68  A    between atoms: _167  and  _168
REMARK   69  A    between atoms: _167  and  _170
REMARK   70  A    between atoms: _170  and  _171
REMARK   71  A    between atoms: _176  and  _178
REMARK   72  A    between atoms: _178  and  _179
REMARK   73  A    between atoms: _178  and  _181
REMARK   74  A    between atoms: _181  and  _182
REMARK   75  A    between atoms: _182  and  _183
REMARK   76  A    between atoms: _186  and  _188
REMARK   77  A    between atoms: _188  and  _189
REMARK   78  A    between atoms: _188  and  _191
REMARK   79  A    between atoms: _191  and  _192
REMARK   80  A    between atoms: _192  and  _193
REMARK   81  A    between atoms: _193  and  _194
REMARK   82  A    between atoms: _194  and  _195
REMARK   83  A    between atoms: _199  and  _201
REMARK   84  A    between atoms: _201  and  _202
REMARK   85  A    between atoms: _204  and  _206
REMARK   86  A    between atoms: _206  and  _207
REMARK   87  A    between atoms: _206  and  _209
REMARK   88  A    between atoms: _212  and  _214
REMARK   89  A    between atoms: _214  and  _215
REMARK   90  A    between atoms: _214  and  _217
REMARK   91  A    between atoms: _217  and  _218
REMARK   92  A    between atoms: _220  and  _222
REMARK   93  A    between atoms: _222  and  _223
REMARK   94  A    between atoms: _222  and  _225
REMARK   95  A    between atoms: _225  and  _226
REMARK   96  A    between atoms: _228  and  _230
REMARK   97  A    between atoms: _230  and  _231
REMARK   98  A    between atoms: _230  and  _233
REMARK   99  A    between atoms: _233  and  _234
REMARK  100  A    between atoms: _240  and  _242
REMARK  101  A    between atoms: _242  and  _243
REMARK  102  A    between atoms: _242  and  _245
REMARK  103  A    between atoms: _245  and  _246
REMARK  104  A    between atoms: _249  and  _251
REMARK  105  A    between atoms: _251  and  _252
REMARK  106  A    between atoms: _251  and  _254
REMARK  107  A    between atoms: _254  and  _255
REMARK  108  A    between atoms: _258  and  _260
REMARK  109  A    between atoms: _260  and  _261
REMARK  110  A    between atoms: _260  and  _263
REMARK  111  A    between atoms: _263  and  _264
REMARK  112  A    between atoms: _264  and  _265
REMARK  113  A    between atoms: _267  and  _269
REMARK  114  A    between atoms: _269  and  _270
REMARK  115  A    between atoms: _269  and  _272
REMARK  116  A    between atoms: _272  and  _273
REMARK  117  A    between atoms: _279  and  _281
REMARK  118  A    between atoms: _281  and  _282
REMARK  119  A    between atoms: _281  and  _284
REMARK  120  A    between atoms: _286  and  _288
REMARK  121  A    between atoms: _288  and  _289
REMARK  122  A    between atoms: _292  and  _294
REMARK  123  A    between atoms: _294  and  _295
REMARK  124  A    between atoms: _297  and  _299
REMARK  125  A    between atoms: _299  and  _300
REMARK  126  A    between atoms: _299  and  _302
REMARK  127  A    between atoms: _302  and  _303
REMARK  128  A    between atoms: _303  and  _304
REMARK  129  A    between atoms: _307  and  _309
REMARK  130  A    between atoms: _309  and  _310
REMARK  131  A    between atoms: _309  and  _312
REMARK  132  A    between atoms: _312  and  _313
REMARK  133  A    between atoms: _316  and  _318
REMARK  134  A    between atoms: _318  and  _319
REMARK  135  A    between atoms: _322  and  _324
REMARK  136  A    between atoms: _324  and  _325
REMARK  137  A    between atoms: _324  and  _327
REMARK  138  A    between atoms: _327  and  _328
REMARK  139  A    between atoms: _328  and  _451
REMARK  140  A    between atoms: _329  and  _331
REMARK  141  A    between atoms: _331  and  _332
REMARK  142  A    between atoms: _331  and  _334
REMARK  143  A    between atoms: _334  and  _335
REMARK  144  A    between atoms: _335  and  _336
REMARK  145  A    between atoms: _341  and  _343
REMARK  146  A    between atoms: _343  and  _344
REMARK  147  A    between atoms: _346  and  _348
REMARK  148  A    between atoms: _348  and  _349
REMARK  149  A    between atoms: _348  and  _351
REMARK  150  A    between atoms: _351  and  _352
REMARK  151  A    between atoms: _355  and  _357
REMARK  152  A    between atoms: _357  and  _358
REMARK  153  A    between atoms: _357  and  _360
REMARK  154  A    between atoms: _360  and  _361
REMARK  155  A    between atoms: _363  and  _365
REMARK  156  A    between atoms: _365  and  _366
REMARK  157  A    between atoms: _368  and  _370
REMARK  158  A    between atoms: _370  and  _371
REMARK  159  A    between atoms: _373  and  _375
REMARK  160  A    between atoms: _375  and  _376
REMARK  161  A    between atoms: _375  and  _378
REMARK  162  A    between atoms: _378  and  _379
REMARK  163  A    between atoms: _384  and  _386
REMARK  164  A    between atoms: _386  and  _387
REMARK  165  A    between atoms: _386  and  _389
REMARK  166  A    between atoms: _389  and  _390
REMARK  167  A    between atoms: _393  and  _395
REMARK  168  A    between atoms: _395  and  _396
REMARK  169  A    between atoms: _395  and  _398
REMARK  170  A    between atoms: _401  and  _403
REMARK  171  A    between atoms: _403  and  _404
REMARK  172  A    between atoms: _403  and  _406
REMARK  173  A    between atoms: _406  and  _407
REMARK  174  A    between atoms: _409  and  _411
REMARK  175  A    between atoms: _411  and  _412
REMARK  176  A    between atoms: _411  and  _414
REMARK  177  A    between atoms: _414  and  _415
REMARK  178  A    between atoms: _425  and  _427
REMARK  179  A    between atoms: _427  and  _428
REMARK  180  A    between atoms: _430  and  _432
REMARK  181  A    between atoms: _432  and  _433
REMARK  182  A    between atoms: _432  and  _435
REMARK  183  A    between atoms: _435  and  _436
REMARK  184  A    between atoms: _436  and  _437
REMARK  185  A    between atoms: _440  and  _442
REMARK  186  A    between atoms: _442  and  _443
REMARK  187  A    between atoms: _445  and  _447
REMARK  188  A    between atoms: _447  and  _448
REMARK  189  A    between atoms: _447  and  _450
REMARK  190  A    between atoms: _450  and  _451
REMARK  191  A    between atoms: _452  and  _454
REMARK  192  A    between atoms: _454  and  _455
REMARK  193  A    between atoms: _458  and  _460
REMARK  194  A    between atoms: _460  and  _461
REMARK  195  A    between atoms: _460  and  _463
REMARK  196  A    between atoms: _463  and  _464
REMARK  197  A    between atoms: _464  and  _465
REMARK  198  A    between atoms: _465  and  _466
REMARK  199  A    between atoms: _475  and  _477
REMARK  200  A    between atoms: _477  and  _478
REMARK  201  A    between atoms: _477  and  _480
REMARK  202  A    between atoms: _480  and  _481
REMARK  203  A    between atoms: _481  and  _482
REMARK  204  A    between atoms: _482  and  _483
REMARK  205  A    between atoms: _483  and  _484
REMARK  206  A    between atoms: _488  and  _490
REMARK  207  A    between atoms: _490  and  _491
REMARK  208  A    between atoms: _490  and  _493
REMARK  209  A    between atoms: _493  and  _494
REMARK  210  A    between atoms: _499  and  _500
REMARK  211  A    between atoms: _502  and  _504
REMARK  212  A    between atoms: _504  and  _505
REMARK  213  A    between atoms: _507  and  _509
REMARK  214  A    between atoms: _509  and  _510
REMARK  215  A    between atoms: _509  and  _512
REMARK  216  A    between atoms: _512  and  _513
REMARK  217  A    between atoms: _516  and  _518
REMARK  218  A    between atoms: _518  and  _519
REMARK  219  A    between atoms: _518  and  _521
REMARK  220  A    between atoms: _521  and  _522
REMARK  221  A    between atoms: _527  and  _528
REMARK  222  A    between atoms: _530  and  _532
REMARK  223  A    between atoms: _532  and  _533
REMARK  224  A    between atoms: _532  and  _535
REMARK  225  A    between atoms: _535  and  _536
REMARK                            x       y       z     vdW  Elec       q    Type
REMARK                         _______ _______ _______ _____ _____    ______ ____
ROOT
ATOM      1  O   HOH     1       1.334  19.756  26.046  0.00  0.00    +0.000 OA
ENDROOT
TORSDOF 0
REMARK  Name = ../refined-set-2016/2jkh/2jkh_pocket.pdb
REMARK  225 active torsions:
REMARK  status: ('A' for Active; 'I' for Inactive)
REMARK    1  A    between atoms: _1  and  _5
REMARK    2  A    between atoms: _5  and  _6
REMARK    3  A    between atoms: _5  and  _8
REMARK    4  A    between atoms: _8  and  _9
REMARK    5  A    between atoms: _12  and  _14
REMARK    6  A    between atoms: _14  and  _15
REMARK    7  A    between atoms: _14  and  _17
REMARK    8  A    between atoms: _20  and  _22
REMARK    9  A    between atoms: _22  and  _23
REMARK   10  A    between atoms: _22  and  _25
REMARK   11  A    between atoms: _25  and  _26
REMARK   12  A    between atoms: _32  and  _34
REMARK   13  A    between atoms: _34  and  _35
REMARK   14  A    between atoms: _34  and  _37
REMARK   15  A    between atoms: _37  and  _38
REMARK   16  A    between atoms: _43  and  _45
REMARK   17  A    between atoms: _45  and  _46
REMARK   18  A    between atoms: _45  and  _48
REMARK   19  A    between atoms: _48  and  _49
REMARK   20  A    between atoms: _49  and  _50
REMARK   21  A    between atoms: _55  and  _57
REMARK   22  A    between atoms: _57  and  _58
REMARK   23  A    between atoms: _57  and  _60
REMARK   24  A    between atoms: _60  and  _61
REMARK   25  A    between atoms: _67  and  _69
REMARK   26  A    between atoms: _69  and  _70
REMARK   27  A    between atoms: _69  and  _72
REMARK   28  A    between atoms: _72  and  _73
REMARK   29  A    between atoms: _76  and  _78
REMARK   30  A    between atoms: _78  and  _79
REMARK   31  A    between atoms: _78  and  _81
REMARK   32  A    between atoms: _81  and  _82
REMARK   33  A    between atoms: _82  and  _83
REMARK   34  A    between atoms: _83  and  _84
REMARK   35  A    between atoms: _84  and  _85
REMARK   36  A    between atoms: _89  and  _91
REMARK   37  A    between atoms: _91  and  _92
REMARK   38  A    between atoms: _91  and  _94
REMARK   39  A    between atoms: _94  and  _95
REMARK   40  A    between atoms: _95  and  _96
REMARK   41  A    between atoms: _99  and  _101
REMARK   42  A    between atoms: _101  and  _102
REMARK   43  A    between atoms: _101  and  _104
REMARK   44  A    between atoms: _104  and  _105
REMARK   45  A    between atoms: _108  and  _110
REMARK   46  A    between atoms: _110  and  _111
REMARK   47  A    between atoms: _110  and  _113
REMARK   48  A    between atoms: _113  and  _114
REMARK   49  A    between atoms: _119  and  _120
REMARK   50  A    between atoms: _122  and  _124
REMARK   51  A    between atoms: _124  and  _125
REMARK   52  A    between atoms: _124  and  _127
REMARK   53  A    between atoms: _127  and  _128
REMARK   54  A    between atoms: _131  and  _133
REMARK   55  A    between atoms: _133  and  _134
REMARK   56  A    between atoms: _133  and  _136
REMARK   57  A    between atoms: _136  and  _137
REMARK   58  A    between atoms: _140  and  _142
REMARK   59  A    between atoms: _142  and  _143
REMARK   60  A    between atoms: _142  and  _145
REMARK   61  A    between atoms: _148  and  _150
REMARK   62  A    between atoms: _150  and  _151
REMARK   63  A    between atoms: _150  and  _153
REMARK   64  A    between atoms: _153  and  _154
REMARK   65  A    between atoms: _154  and  _155
REMARK   66  A    between atoms: _155  and  _156
REMARK   67  A    between atoms: _165  and  _167
REMARK   68  A    between atoms: _167  and  _168
REMARK   69  A    between atoms: _167  and  _170
REMARK   70  A    between atoms: _170  and  _171
REMARK   71  A    between atoms: _176  and  _178
REMARK   72  A    between atoms: _178  and  _179
REMARK   73  A    between atoms: _178  and  _181
REMARK   74  A    between atoms: _181  and  _182
REMARK   75  A    between atoms: _182  and  _183
REMARK   76  A    between atoms: _186  and  _188
REMARK   77  A    between atoms: _188  and  _189
REMARK   78  A    between atoms: _188  and  _191
REMARK   79  A    between atoms: _191  and  _192
REMARK   80  A    between atoms: _192  and  _193
REMARK   81  A    between atoms: _193  and  _194
REMARK   82  A    between atoms: _194  and  _195
REMARK   83  A    between atoms: _199  and  _201
REMARK   84  A    between atoms: _201  and  _202
REMARK   85  A    between atoms: _204  and  _206
REMARK   86  A    between atoms: _206  and  _207
REMARK   87  A    between atoms: _206  and  _209
REMARK   88  A    between atoms: _212  and  _214
REMARK   89  A    between atoms: _214  and  _215
REMARK   90  A    between atoms: _214  and  _217
REMARK   91  A    between atoms: _217  and  _218
REMARK   92  A    between atoms: _220  and  _222
REMARK   93  A    between atoms: _222  and  _223
REMARK   94  A    between atoms: _222  and  _225
REMARK   95  A    between atoms: _225  and  _226
REMARK   96  A    between atoms: _228  and  _230
REMARK   97  A    between atoms: _230  and  _231
REMARK   98  A    between atoms: _230  and  _233
REMARK   99  A    between atoms: _233  and  _234
REMARK  100  A    between atoms: _240  and  _242
REMARK  101  A    between atoms: _242  and  _243
REMARK  102  A    between atoms: _242  and  _245
REMARK  103  A    between atoms: _245  and  _246
REMARK  104  A    between atoms: _249  and  _251
REMARK  105  A    between atoms: _251  and  _252
REMARK  106  A    between atoms: _251  and  _254
REMARK  107  A    between atoms: _254  and  _255
REMARK  108  A    between atoms: _258  and  _260
REMARK  109  A    between atoms: _260  and  _261
REMARK  110  A    between atoms: _260  and  _263
REMARK  111  A    between atoms: _263  and  _264
REMARK  112  A    between atoms: _264  and  _265
REMARK  113  A    between atoms: _267  and  _269
REMARK  114  A    between atoms: _269  and  _270
REMARK  115  A    between atoms: _269  and  _272
REMARK  116  A    between atoms: _272  and  _273
REMARK  117  A    between atoms: _279  and  _281
REMARK  118  A    between atoms: _281  and  _282
REMARK  119  A    between atoms: _281  and  _284
REMARK  120  A    between atoms: _286  and  _288
REMARK  121  A    between atoms: _288  and  _289
REMARK  122  A    between atoms: _292  and  _294
REMARK  123  A    between atoms: _294  and  _295
REMARK  124  A    between atoms: _297  and  _299
REMARK  125  A    between atoms: _299  and  _300
REMARK  126  A    between atoms: _299  and  _302
REMARK  127  A    between atoms: _302  and  _303
REMARK  128  A    between atoms: _303  and  _304
REMARK  129  A    between atoms: _307  and  _309
REMARK  130  A    between atoms: _309  and  _310
REMARK  131  A    between atoms: _309  and  _312
REMARK  132  A    between atoms: _312  and  _313
REMARK  133  A    between atoms: _316  and  _318
REMARK  134  A    between atoms: _318  and  _319
REMARK  135  A    between atoms: _322  and  _324
REMARK  136  A    between atoms: _324  and  _325
REMARK  137  A    between atoms: _324  and  _327
REMARK  138  A    between atoms: _327  and  _328
REMARK  139  A    between atoms: _328  and  _451
REMARK  140  A    between atoms: _329  and  _331
REMARK  141  A    between atoms: _331  and  _332
REMARK  142  A    between atoms: _331  and  _334
REMARK  143  A    between atoms: _334  and  _335
REMARK  144  A    between atoms: _335  and  _336
REMARK  145  A    between atoms: _341  and  _343
REMARK  146  A    between atoms: _343  and  _344
REMARK  147  A    between atoms: _346  and  _348
REMARK  148  A    between atoms: _348  and  _349
REMARK  149  A    between atoms: _348  and  _351
REMARK  150  A    between atoms: _351  and  _352
REMARK  151  A    between atoms: _355  and  _357
REMARK  152  A    between atoms: _357  and  _358
REMARK  153  A    between atoms: _357  and  _360
REMARK  154  A    between atoms: _360  and  _361
REMARK  155  A    between atoms: _363  and  _365
REMARK  156  A    between atoms: _365  and  _366
REMARK  157  A    between atoms: _368  and  _370
REMARK  158  A    between atoms: _370  and  _371
REMARK  159  A    between atoms: _373  and  _375
REMARK  160  A    between atoms: _375  and  _376
REMARK  161  A    between atoms: _375  and  _378
REMARK  162  A    between atoms: _378  and  _379
REMARK  163  A    between atoms: _384  and  _386
REMARK  164  A    between atoms: _386  and  _387
REMARK  165  A    between atoms: _386  and  _389
REMARK  166  A    between atoms: _389  and  _390
REMARK  167  A    between atoms: _393  and  _395
REMARK  168  A    between atoms: _395  and  _396
REMARK  169  A    between atoms: _395  and  _398
REMARK  170  A    between atoms: _401  and  _403
REMARK  171  A    between atoms: _403  and  _404
REMARK  172  A    between atoms: _403  and  _406
REMARK  173  A    between atoms: _406  and  _407
REMARK  174  A    between atoms: _409  and  _411
REMARK  175  A    between atoms: _411  and  _412
REMARK  176  A    between atoms: _411  and  _414
REMARK  177  A    between atoms: _414  and  _415
REMARK  178  A    between atoms: _425  and  _427
REMARK  179  A    between atoms: _427  and  _428
REMARK  180  A    between atoms: _430  and  _432
REMARK  181  A    between atoms: _432  and  _433
REMARK  182  A    between atoms: _432  and  _435
REMARK  183  A    between atoms: _435  and  _436
REMARK  184  A    between atoms: _436  and  _437
REMARK  185  A    between atoms: _440  and  _442
REMARK  186  A    between atoms: _442  and  _443
REMARK  187  A    between atoms: _445  and  _447
REMARK  188  A    between atoms: _447  and  _448
REMARK  189  A    between atoms: _447  and  _450
REMARK  190  A    between atoms: _450  and  _451
REMARK  191  A    between atoms: _452  and  _454
REMARK  192  A    between atoms: _454  and  _455
REMARK  193  A    between atoms: _458  and  _460
REMARK  194  A    between atoms: _460  and  _461
REMARK  195  A    between atoms: _460  and  _463
REMARK  196  A    between atoms: _463  and  _464
REMARK  197  A    between atoms: _464  and  _465
REMARK  198  A    between atoms: _465  and  _466
REMARK  199  A    between atoms: _475  and  _477
REMARK  200  A    between atoms: _477  and  _478
REMARK  201  A    between atoms: _477  and  _480
REMARK  202  A    between atoms: _480  and  _481
REMARK  203  A    between atoms: _481  and  _482
REMARK  204  A    between atoms: _482  and  _483
REMARK  205  A    between atoms: _483  and  _484
REMARK  206  A    between atoms: _488  and  _490
REMARK  207  A    between atoms: _490  and  _491
REMARK  208  A    between atoms: _490  and  _493
REMARK  209  A    between atoms: _493  and  _494
REMARK  210  A    between atoms: _499  and  _500
REMARK  211  A    between atoms: _502  and  _504
REMARK  212  A    between atoms: _504  and  _505
REMARK  213  A    between atoms: _507  and  _509
REMARK  214  A    between atoms: _509  and  _510
REMARK  215  A    between atoms: _509  and  _512
REMARK  216  A    between atoms: _512  and  _513
REMARK  217  A    between atoms: _516  and  _518
REMARK  218  A    between atoms: _518  and  _519
REMARK  219  A    between atoms: _518  and  _521
REMARK  220  A    between atoms: _521  and  _522
REMARK  221  A    between atoms: _527  and  _528
REMARK  222  A    between atoms: _530  and  _532
REMARK  223  A    between atoms: _532  and  _533
REMARK  224  A    between atoms: _532  and  _535
REMARK  225  A    between atoms: _535  and  _536
REMARK                            x       y       z     vdW  Elec       q    Type
REMARK                         _______ _______ _______ _____ _____    ______ ____
ROOT
ATOM      1  O   HOH     1       3.070  17.879  25.115  0.00  0.00    +0.000 OA
ENDROOT
TORSDOF 0
REMARK  Name = ../refined-set-2016/2jkh/2jkh_pocket.pdb
REMARK  225 active torsions:
REMARK  status: ('A' for Active; 'I' for Inactive)
REMARK    1  A    between atoms: _1  and  _5
REMARK    2  A    between atoms: _5  and  _6
REMARK    3  A    between atoms: _5  and  _8
REMARK    4  A    between atoms: _8  and  _9
REMARK    5  A    between atoms: _12  and  _14
REMARK    6  A    between atoms: _14  and  _15
REMARK    7  A    between atoms: _14  and  _17
REMARK    8  A    between atoms: _20  and  _22
REMARK    9  A    between atoms: _22  and  _23
REMARK   10  A    between atoms: _22  and  _25
REMARK   11  A    between atoms: _25  and  _26
REMARK   12  A    between atoms: _32  and  _34
REMARK   13  A    between atoms: _34  and  _35
REMARK   14  A    between atoms: _34  and  _37
REMARK   15  A    between atoms: _37  and  _38
REMARK   16  A    between atoms: _43  and  _45
REMARK   17  A    between atoms: _45  and  _46
REMARK   18  A    between atoms: _45  and  _48
REMARK   19  A    between atoms: _48  and  _49
REMARK   20  A    between atoms: _49  and  _50
REMARK   21  A    between atoms: _55  and  _57
REMARK   22  A    between atoms: _57  and  _58
REMARK   23  A    between atoms: _57  and  _60
REMARK   24  A    between atoms: _60  and  _61
REMARK   25  A    between atoms: _67  and  _69
REMARK   26  A    between atoms: _69  and  _70
REMARK   27  A    between atoms: _69  and  _72
REMARK   28  A    between atoms: _72  and  _73
REMARK   29  A    between atoms: _76  and  _78
REMARK   30  A    between atoms: _78  and  _79
REMARK   31  A    between atoms: _78  and  _81
REMARK   32  A    between atoms: _81  and  _82
REMARK   33  A    between atoms: _82  and  _83
REMARK   34  A    between atoms: _83  and  _84
REMARK   35  A    between atoms: _84  and  _85
REMARK   36  A    between atoms: _89  and  _91
REMARK   37  A    between atoms: _91  and  _92
REMARK   38  A    between atoms: _91  and  _94
REMARK   39  A    between atoms: _94  and  _95
REMARK   40  A    between atoms: _95  and  _96
REMARK   41  A    between atoms: _99  and  _101
REMARK   42  A    between atoms: _101  and  _102
REMARK   43  A    between atoms: _101  and  _104
REMARK   44  A    between atoms: _104  and  _105
REMARK   45  A    between atoms: _108  and  _110
REMARK   46  A    between atoms: _110  and  _111
REMARK   47  A    between atoms: _110  and  _113
REMARK   48  A    between atoms: _113  and  _114
REMARK   49  A    between atoms: _119  and  _120
REMARK   50  A    between atoms: _122  and  _124
REMARK   51  A    between atoms: _124  and  _125
REMARK   52  A    between atoms: _124  and  _127
REMARK   53  A    between atoms: _127  and  _128
REMARK   54  A    between atoms: _131  and  _133
REMARK   55  A    between atoms: _133  and  _134
REMARK   56  A    between atoms: _133  and  _136
REMARK   57  A    between atoms: _136  and  _137
REMARK   58  A    between atoms: _140  and  _142
REMARK   59  A    between atoms: _142  and  _143
REMARK   60  A    between atoms: _142  and  _145
REMARK   61  A    between atoms: _148  and  _150
REMARK   62  A    between atoms: _150  and  _151
REMARK   63  A    between atoms: _150  and  _153
REMARK   64  A    between atoms: _153  and  _154
REMARK   65  A    between atoms: _154  and  _155
REMARK   66  A    between atoms: _155  and  _156
REMARK   67  A    between atoms: _165  and  _167
REMARK   68  A    between atoms: _167  and  _168
REMARK   69  A    between atoms: _167  and  _170
REMARK   70  A    between atoms: _170  and  _171
REMARK   71  A    between atoms: _176  and  _178
REMARK   72  A    between atoms: _178  and  _179
REMARK   73  A    between atoms: _178  and  _181
REMARK   74  A    between atoms: _181  and  _182
REMARK   75  A    between atoms: _182  and  _183
REMARK   76  A    between atoms: _186  and  _188
REMARK   77  A    between atoms: _188  and  _189
REMARK   78  A    between atoms: _188  and  _191
REMARK   79  A    between atoms: _191  and  _192
REMARK   80  A    between atoms: _192  and  _193
REMARK   81  A    between atoms: _193  and  _194
REMARK   82  A    between atoms: _194  and  _195
REMARK   83  A    between atoms: _199  and  _201
REMARK   84  A    between atoms: _201  and  _202
REMARK   85  A    between atoms: _204  and  _206
REMARK   86  A    between atoms: _206  and  _207
REMARK   87  A    between atoms: _206  and  _209
REMARK   88  A    between atoms: _212  and  _214
REMARK   89  A    between atoms: _214  and  _215
REMARK   90  A    between atoms: _214  and  _217
REMARK   91  A    between atoms: _217  and  _218
REMARK   92  A    between atoms: _220  and  _222
REMARK   93  A    between atoms: _222  and  _223
REMARK   94  A    between atoms: _222  and  _225
REMARK   95  A    between atoms: _225  and  _226
REMARK   96  A    between atoms: _228  and  _230
REMARK   97  A    between atoms: _230  and  _231
REMARK   98  A    between atoms: _230  and  _233
REMARK   99  A    between atoms: _233  and  _234
REMARK  100  A    between atoms: _240  and  _242
REMARK  101  A    between atoms: _242  and  _243
REMARK  102  A    between atoms: _242  and  _245
REMARK  103  A    between atoms: _245  and  _246
REMARK  104  A    between atoms: _249  and  _251
REMARK  105  A    between atoms: _251  and  _252
REMARK  106  A    between atoms: _251  and  _254
REMARK  107  A    between atoms: _254  and  _255
REMARK  108  A    between atoms: _258  and  _260
REMARK  109  A    between atoms: _260  and  _261
REMARK  110  A    between atoms: _260  and  _263
REMARK  111  A    between atoms: _263  and  _264
REMARK  112  A    between atoms: _264  and  _265
REMARK  113  A    between atoms: _267  and  _269
REMARK  114  A    between atoms: _269  and  _270
REMARK  115  A    between atoms: _269  and  _272
REMARK  116  A    between atoms: _272  and  _273
REMARK  117  A    between atoms: _279  and  _281
REMARK  118  A    between atoms: _281  and  _282
REMARK  119  A    between atoms: _281  and  _284
REMARK  120  A    between atoms: _286  and  _288
REMARK  121  A    between atoms: _288  and  _289
REMARK  122  A    between atoms: _292  and  _294
REMARK  123  A    between atoms: _294  and  _295
REMARK  124  A    between atoms: _297  and  _299
REMARK  125  A    between atoms: _299  and  _300
REMARK  126  A    between atoms: _299  and  _302
REMARK  127  A    between atoms: _302  and  _303
REMARK  128  A    between atoms: _303  and  _304
REMARK  129  A    between atoms: _307  and  _309
REMARK  130  A    between atoms: _309  and  _310
REMARK  131  A    between atoms: _309  and  _312
REMARK  132  A    between atoms: _312  and  _313
REMARK  133  A    between atoms: _316  and  _318
REMARK  134  A    between atoms: _318  and  _319
REMARK  135  A    between atoms: _322  and  _324
REMARK  136  A    between atoms: _324  and  _325
REMARK  137  A    between atoms: _324  and  _327
REMARK  138  A    between atoms: _327  and  _328
REMARK  139  A    between atoms: _328  and  _451
REMARK  140  A    between atoms: _329  and  _331
REMARK  141  A    between atoms: _331  and  _332
REMARK  142  A    between atoms: _331  and  _334
REMARK  143  A    between atoms: _334  and  _335
REMARK  144  A    between atoms: _335  and  _336
REMARK  145  A    between atoms: _341  and  _343
REMARK  146  A    between atoms: _343  and  _344
REMARK  147  A    between atoms: _346  and  _348
REMARK  148  A    between atoms: _348  and  _349
REMARK  149  A    between atoms: _348  and  _351
REMARK  150  A    between atoms: _351  and  _352
REMARK  151  A    between atoms: _355  and  _357
REMARK  152  A    between atoms: _357  and  _358
REMARK  153  A    between atoms: _357  and  _360
REMARK  154  A    between atoms: _360  and  _361
REMARK  155  A    between atoms: _363  and  _365
REMARK  156  A    between atoms: _365  and  _366
REMARK  157  A    between atoms: _368  and  _370
REMARK  158  A    between atoms: _370  and  _371
REMARK  159  A    between atoms: _373  and  _375
REMARK  160  A    between atoms: _375  and  _376
REMARK  161  A    between atoms: _375  and  _378
REMARK  162  A    between atoms: _378  and  _379
REMARK  163  A    between atoms: _384  and  _386
REMARK  164  A    between atoms: _386  and  _387
REMARK  165  A    between atoms: _386  and  _389
REMARK  166  A    between atoms: _389  and  _390
REMARK  167  A    between atoms: _393  and  _395
REMARK  168  A    between atoms: _395  and  _396
REMARK  169  A    between atoms: _395  and  _398
REMARK  170  A    between atoms: _401  and  _403
REMARK  171  A    between atoms: _403  and  _404
REMARK  172  A    between atoms: _403  and  _406
REMARK  173  A    between atoms: _406  and  _407
REMARK  174  A    between atoms: _409  and  _411
REMARK  175  A    between atoms: _411  and  _412
REMARK  176  A    between atoms: _411  and  _414
REMARK  177  A    between atoms: _414  and  _415
REMARK  178  A    between atoms: _425  and  _427
REMARK  179  A    between atoms: _427  and  _428
REMARK  180  A    between atoms: _430  and  _432
REMARK  181  A    between atoms: _432  and  _433
REMARK  182  A    between atoms: _432  and  _435
REMARK  183  A    between atoms: _435  and  _436
REMARK  184  A    between atoms: _436  and  _437
REMARK  185  A    between atoms: _440  and  _442
REMARK  186  A    between atoms: _442  and  _443
REMARK  187  A    between atoms: _445  and  _447
REMARK  188  A    between atoms: _447  and  _448
REMARK  189  A    between atoms: _447  and  _450
REMARK  190  A    between atoms: _450  and  _451
REMARK  191  A    between atoms: _452  and  _454
REMARK  192  A    between atoms: _454  and  _455
REMARK  193  A    between atoms: _458  and  _460
REMARK  194  A    between atoms: _460  and  _461
REMARK  195  A    between atoms: _460  and  _463
REMARK  196  A    between atoms: _463  and  _464
REMARK  197  A    between atoms: _464  and  _465
REMARK  198  A    between atoms: _465  and  _466
REMARK  199  A    between atoms: _475  and  _477
REMARK  200  A    between atoms: _477  and  _478
REMARK  201  A    between atoms: _477  and  _480
REMARK  202  A    between atoms: _480  and  _481
REMARK  203  A    between atoms: _481  and  _482
REMARK  204  A    between atoms: _482  and  _483
REMARK  205  A    between atoms: _483  and  _484
REMARK  206  A    between atoms: _488  and  _490
REMARK  207  A    between atoms: _490  and  _491
REMARK  208  A    between atoms: _490  and  _493
REMARK  209  A    between atoms: _493  and  _494
REMARK  210  A    between atoms: _499  and  _500
REMARK  211  A    between atoms: _502  and  _504
REMARK  212  A    between atoms: _504  and  _505
REMARK  213  A    between atoms: _507  and  _509
REMARK  214  A    between atoms: _509  and  _510
REMARK  215  A    between atoms: _509  and  _512
REMARK  216  A    between atoms: _512  and  _513
REMARK  217  A    between atoms: _516  and  _518
REMARK  218  A    between atoms: _518  and  _519
REMARK  219  A    between atoms: _518  and  _521
REMARK  220  A    between atoms: _521  and  _522
REMARK  221  A    between atoms: _527  and  _528
REMARK  222  A    between atoms: _530  and  _532
REMARK  223  A    between atoms: _532  and  _533
REMARK  224  A    between atoms: _532  and  _535
REMARK  225  A    between atoms: _535  and  _536
REMARK                            x       y       z     vdW  Elec       q    Type
REMARK                         _______ _______ _______ _____ _____    ______ ____
ROOT
ATOM      1  O   HOH     1     -13.517   3.148  16.750  0.00  0.00    +0.000 OA
ENDROOT
TORSDOF 0
REMARK  Name = ../refined-set-2016/2jkh/2jkh_pocket.pdb
REMARK  225 active torsions:
REMARK  status: ('A' for Active; 'I' for Inactive)
REMARK    1  A    between atoms: _1  and  _5
REMARK    2  A    between atoms: _5  and  _6
REMARK    3  A    between atoms: _5  and  _8
REMARK    4  A    between atoms: _8  and  _9
REMARK    5  A    between atoms: _12  and  _14
REMARK    6  A    between atoms: _14  and  _15
REMARK    7  A    between atoms: _14  and  _17
REMARK    8  A    between atoms: _20  and  _22
REMARK    9  A    between atoms: _22  and  _23
REMARK   10  A    between atoms: _22  and  _25
REMARK   11  A    between atoms: _25  and  _26
REMARK   12  A    between atoms: _32  and  _34
REMARK   13  A    between atoms: _34  and  _35
REMARK   14  A    between atoms: _34  and  _37
REMARK   15  A    between atoms: _37  and  _38
REMARK   16  A    between atoms: _43  and  _45
REMARK   17  A    between atoms: _45  and  _46
REMARK   18  A    between atoms: _45  and  _48
REMARK   19  A    between atoms: _48  and  _49
REMARK   20  A    between atoms: _49  and  _50
REMARK   21  A    between atoms: _55  and  _57
REMARK   22  A    between atoms: _57  and  _58
REMARK   23  A    between atoms: _57  and  _60
REMARK   24  A    between atoms: _60  and  _61
REMARK   25  A    between atoms: _67  and  _69
REMARK   26  A    between atoms: _69  and  _70
REMARK   27  A    between atoms: _69  and  _72
REMARK   28  A    between atoms: _72  and  _73
REMARK   29  A    between atoms: _76  and  _78
REMARK   30  A    between atoms: _78  and  _79
REMARK   31  A    between atoms: _78  and  _81
REMARK   32  A    between atoms: _81  and  _82
REMARK   33  A    between atoms: _82  and  _83
REMARK   34  A    between atoms: _83  and  _84
REMARK   35  A    between atoms: _84  and  _85
REMARK   36  A    between atoms: _89  and  _91
REMARK   37  A    between atoms: _91  and  _92
REMARK   38  A    between atoms: _91  and  _94
REMARK   39  A    between atoms: _94  and  _95
REMARK   40  A    between atoms: _95  and  _96
REMARK   41  A    between atoms: _99  and  _101
REMARK   42  A    between atoms: _101  and  _102
REMARK   43  A    between atoms: _101  and  _104
REMARK   44  A    between atoms: _104  and  _105
REMARK   45  A    between atoms: _108  and  _110
REMARK   46  A    between atoms: _110  and  _111
REMARK   47  A    between atoms: _110  and  _113
REMARK   48  A    between atoms: _113  and  _114
REMARK   49  A    between atoms: _119  and  _120
REMARK   50  A    between atoms: _122  and  _124
REMARK   51  A    between atoms: _124  and  _125
REMARK   52  A    between atoms: _124  and  _127
REMARK   53  A    between atoms: _127  and  _128
REMARK   54  A    between atoms: _131  and  _133
REMARK   55  A    between atoms: _133  and  _134
REMARK   56  A    between atoms: _133  and  _136
REMARK   57  A    between atoms: _136  and  _137
REMARK   58  A    between atoms: _140  and  _142
REMARK   59  A    between atoms: _142  and  _143
REMARK   60  A    between atoms: _142  and  _145
REMARK   61  A    between atoms: _148  and  _150
REMARK   62  A    between atoms: _150  and  _151
REMARK   63  A    between atoms: _150  and  _153
REMARK   64  A    between atoms: _153  and  _154
REMARK   65  A    between atoms: _154  and  _155
REMARK   66  A    between atoms: _155  and  _156
REMARK   67  A    between atoms: _165  and  _167
REMARK   68  A    between atoms: _167  and  _168
REMARK   69  A    between atoms: _167  and  _170
REMARK   70  A    between atoms: _170  and  _171
REMARK   71  A    between atoms: _176  and  _178
REMARK   72  A    between atoms: _178  and  _179
REMARK   73  A    between atoms: _178  and  _181
REMARK   74  A    between atoms: _181  and  _182
REMARK   75  A    between atoms: _182  and  _183
REMARK   76  A    between atoms: _186  and  _188
REMARK   77  A    between atoms: _188  and  _189
REMARK   78  A    between atoms: _188  and  _191
REMARK   79  A    between atoms: _191  and  _192
REMARK   80  A    between atoms: _192  and  _193
REMARK   81  A    between atoms: _193  and  _194
REMARK   82  A    between atoms: _194  and  _195
REMARK   83  A    between atoms: _199  and  _201
REMARK   84  A    between atoms: _201  and  _202
REMARK   85  A    between atoms: _204  and  _206
REMARK   86  A    between atoms: _206  and  _207
REMARK   87  A    between atoms: _206  and  _209
REMARK   88  A    between atoms: _212  and  _214
REMARK   89  A    between atoms: _214  and  _215
REMARK   90  A    between atoms: _214  and  _217
REMARK   91  A    between atoms: _217  and  _218
REMARK   92  A    between atoms: _220  and  _222
REMARK   93  A    between atoms: _222  and  _223
REMARK   94  A    between atoms: _222  and  _225
REMARK   95  A    between atoms: _225  and  _226
REMARK   96  A    between atoms: _228  and  _230
REMARK   97  A    between atoms: _230  and  _231
REMARK   98  A    between atoms: _230  and  _233
REMARK   99  A    between atoms: _233  and  _234
REMARK  100  A    between atoms: _240  and  _242
REMARK  101  A    between atoms: _242  and  _243
REMARK  102  A    between atoms: _242  and  _245
REMARK  103  A    between atoms: _245  and  _246
REMARK  104  A    between atoms: _249  and  _251
REMARK  105  A    between atoms: _251  and  _252
REMARK  106  A    between atoms: _251  and  _254
REMARK  107  A    between atoms: _254  and  _255
REMARK  108  A    between atoms: _258  and  _260
REMARK  109  A    between atoms: _260  and  _261
REMARK  110  A    between atoms: _260  and  _263
REMARK  111  A    between atoms: _263  and  _264
REMARK  112  A    between atoms: _264  and  _265
REMARK  113  A    between atoms: _267  and  _269
REMARK  114  A    between atoms: _269  and  _270
REMARK  115  A    between atoms: _269  and  _272
REMARK  116  A    between atoms: _272  and  _273
REMARK  117  A    between atoms: _279  and  _281
REMARK  118  A    between atoms: _281  and  _282
REMARK  119  A    between atoms: _281  and  _284
REMARK  120  A    between atoms: _286  and  _288
REMARK  121  A    between atoms: _288  and  _289
REMARK  122  A    between atoms: _292  and  _294
REMARK  123  A    between atoms: _294  and  _295
REMARK  124  A    between atoms: _297  and  _299
REMARK  125  A    between atoms: _299  and  _300
REMARK  126  A    between atoms: _299  and  _302
REMARK  127  A    between atoms: _302  and  _303
REMARK  128  A    between atoms: _303  and  _304
REMARK  129  A    between atoms: _307  and  _309
REMARK  130  A    between atoms: _309  and  _310
REMARK  131  A    between atoms: _309  and  _312
REMARK  132  A    between atoms: _312  and  _313
REMARK  133  A    between atoms: _316  and  _318
REMARK  134  A    between atoms: _318  and  _319
REMARK  135  A    between atoms: _322  and  _324
REMARK  136  A    between atoms: _324  and  _325
REMARK  137  A    between atoms: _324  and  _327
REMARK  138  A    between atoms: _327  and  _328
REMARK  139  A    between atoms: _328  and  _451
REMARK  140  A    between atoms: _329  and  _331
REMARK  141  A    between atoms: _331  and  _332
REMARK  142  A    between atoms: _331  and  _334
REMARK  143  A    between atoms: _334  and  _335
REMARK  144  A    between atoms: _335  and  _336
REMARK  145  A    between atoms: _341  and  _343
REMARK  146  A    between atoms: _343  and  _344
REMARK  147  A    between atoms: _346  and  _348
REMARK  148  A    between atoms: _348  and  _349
REMARK  149  A    between atoms: _348  and  _351
REMARK  150  A    between atoms: _351  and  _352
REMARK  151  A    between atoms: _355  and  _357
REMARK  152  A    between atoms: _357  and  _358
REMARK  153  A    between atoms: _357  and  _360
REMARK  154  A    between atoms: _360  and  _361
REMARK  155  A    between atoms: _363  and  _365
REMARK  156  A    between atoms: _365  and  _366
REMARK  157  A    between atoms: _368  and  _370
REMARK  158  A    between atoms: _370  and  _371
REMARK  159  A    between atoms: _373  and  _375
REMARK  160  A    between atoms: _375  and  _376
REMARK  161  A    between atoms: _375  and  _378
REMARK  162  A    between atoms: _378  and  _379
REMARK  163  A    between atoms: _384  and  _386
REMARK  164  A    between atoms: _386  and  _387
REMARK  165  A    between atoms: _386  and  _389
REMARK  166  A    between atoms: _389  and  _390
REMARK  167  A    between atoms: _393  and  _395
REMARK  168  A    between atoms: _395  and  _396
REMARK  169  A    between atoms: _395  and  _398
REMARK  170  A    between atoms: _401  and  _403
REMARK  171  A    between atoms: _403  and  _404
REMARK  172  A    between atoms: _403  and  _406
REMARK  173  A    between atoms: _406  and  _407
REMARK  174  A    between atoms: _409  and  _411
REMARK  175  A    between atoms: _411  and  _412
REMARK  176  A    between atoms: _411  and  _414
REMARK  177  A    between atoms: _414  and  _415
REMARK  178  A    between atoms: _425  and  _427
REMARK  179  A    between atoms: _427  and  _428
REMARK  180  A    between atoms: _430  and  _432
REMARK  181  A    between atoms: _432  and  _433
REMARK  182  A    between atoms: _432  and  _435
REMARK  183  A    between atoms: _435  and  _436
REMARK  184  A    between atoms: _436  and  _437
REMARK  185  A    between atoms: _440  and  _442
REMARK  186  A    between atoms: _442  and  _443
REMARK  187  A    between atoms: _445  and  _447
REMARK  188  A    between atoms: _447  and  _448
REMARK  189  A    between atoms: _447  and  _450
REMARK  190  A    between atoms: _450  and  _451
REMARK  191  A    between atoms: _452  and  _454
REMARK  192  A    between atoms: _454  and  _455
REMARK  193  A    between atoms: _458  and  _460
REMARK  194  A    between atoms: _460  and  _461
REMARK  195  A    between atoms: _460  and  _463
REMARK  196  A    between atoms: _463  and  _464
REMARK  197  A    between atoms: _464  and  _465
REMARK  198  A    between atoms: _465  and  _466
REMARK  199  A    between atoms: _475  and  _477
REMARK  200  A    between atoms: _477  and  _478
REMARK  201  A    between atoms: _477  and  _480
REMARK  202  A    between atoms: _480  and  _481
REMARK  203  A    between atoms: _481  and  _482
REMARK  204  A    between atoms: _482  and  _483
REMARK  205  A    between atoms: _483  and  _484
REMARK  206  A    between atoms: _488  and  _490
REMARK  207  A    between atoms: _490  and  _491
REMARK  208  A    between atoms: _490  and  _493
REMARK  209  A    between atoms: _493  and  _494
REMARK  210  A    between atoms: _499  and  _500
REMARK  211  A    between atoms: _502  and  _504
REMARK  212  A    between atoms: _504  and  _505
REMARK  213  A    between atoms: _507  and  _509
REMARK  214  A    between atoms: _509  and  _510
REMARK  215  A    between atoms: _509  and  _512
REMARK  216  A    between atoms: _512  and  _513
REMARK  217  A    between atoms: _516  and  _518
REMARK  218  A    between atoms: _518  and  _519
REMARK  219  A    between atoms: _518  and  _521
REMARK  220  A    between atoms: _521  and  _522
REMARK  221  A    between atoms: _527  and  _528
REMARK  222  A    between atoms: _530  and  _532
REMARK  223  A    between atoms: _532  and  _533
REMARK  224  A    between atoms: _532  and  _535
REMARK  225  A    between atoms: _535  and  _536
REMARK                            x       y       z     vdW  Elec       q    Type
REMARK                         _______ _______ _______ _____ _____    ______ ____
ROOT
ATOM      1  O   HOH     1      -7.006   2.450  17.759  0.00  0.00    +0.000 OA
ENDROOT
TORSDOF 0
REMARK  Name = ../refined-set-2016/2jkh/2jkh_pocket.pdb
REMARK  225 active torsions:
REMARK  status: ('A' for Active; 'I' for Inactive)
REMARK    1  A    between atoms: _1  and  _5
REMARK    2  A    between atoms: _5  and  _6
REMARK    3  A    between atoms: _5  and  _8
REMARK    4  A    between atoms: _8  and  _9
REMARK    5  A    between atoms: _12  and  _14
REMARK    6  A    between atoms: _14  and  _15
REMARK    7  A    between atoms: _14  and  _17
REMARK    8  A    between atoms: _20  and  _22
REMARK    9  A    between atoms: _22  and  _23
REMARK   10  A    between atoms: _22  and  _25
REMARK   11  A    between atoms: _25  and  _26
REMARK   12  A    between atoms: _32  and  _34
REMARK   13  A    between atoms: _34  and  _35
REMARK   14  A    between atoms: _34  and  _37
REMARK   15  A    between atoms: _37  and  _38
REMARK   16  A    between atoms: _43  and  _45
REMARK   17  A    between atoms: _45  and  _46
REMARK   18  A    between atoms: _45  and  _48
REMARK   19  A    between atoms: _48  and  _49
REMARK   20  A    between atoms: _49  and  _50
REMARK   21  A    between atoms: _55  and  _57
REMARK   22  A    between atoms: _57  and  _58
REMARK   23  A    between atoms: _57  and  _60
REMARK   24  A    between atoms: _60  and  _61
REMARK   25  A    between atoms: _67  and  _69
REMARK   26  A    between atoms: _69  and  _70
REMARK   27  A    between atoms: _69  and  _72
REMARK   28  A    between atoms: _72  and  _73
REMARK   29  A    between atoms: _76  and  _78
REMARK   30  A    between atoms: _78  and  _79
REMARK   31  A    between atoms: _78  and  _81
REMARK   32  A    between atoms: _81  and  _82
REMARK   33  A    between atoms: _82  and  _83
REMARK   34  A    between atoms: _83  and  _84
REMARK   35  A    between atoms: _84  and  _85
REMARK   36  A    between atoms: _89  and  _91
REMARK   37  A    between atoms: _91  and  _92
REMARK   38  A    between atoms: _91  and  _94
REMARK   39  A    between atoms: _94  and  _95
REMARK   40  A    between atoms: _95  and  _96
REMARK   41  A    between atoms: _99  and  _101
REMARK   42  A    between atoms: _101  and  _102
REMARK   43  A    between atoms: _101  and  _104
REMARK   44  A    between atoms: _104  and  _105
REMARK   45  A    between atoms: _108  and  _110
REMARK   46  A    between atoms: _110  and  _111
REMARK   47  A    between atoms: _110  and  _113
REMARK   48  A    between atoms: _113  and  _114
REMARK   49  A    between atoms: _119  and  _120
REMARK   50  A    between atoms: _122  and  _124
REMARK   51  A    between atoms: _124  and  _125
REMARK   52  A    between atoms: _124  and  _127
REMARK   53  A    between atoms: _127  and  _128
REMARK   54  A    between atoms: _131  and  _133
REMARK   55  A    between atoms: _133  and  _134
REMARK   56  A    between atoms: _133  and  _136
REMARK   57  A    between atoms: _136  and  _137
REMARK   58  A    between atoms: _140  and  _142
REMARK   59  A    between atoms: _142  and  _143
REMARK   60  A    between atoms: _142  and  _145
REMARK   61  A    between atoms: _148  and  _150
REMARK   62  A    between atoms: _150  and  _151
REMARK   63  A    between atoms: _150  and  _153
REMARK   64  A    between atoms: _153  and  _154
REMARK   65  A    between atoms: _154  and  _155
REMARK   66  A    between atoms: _155  and  _156
REMARK   67  A    between atoms: _165  and  _167
REMARK   68  A    between atoms: _167  and  _168
REMARK   69  A    between atoms: _167  and  _170
REMARK   70  A    between atoms: _170  and  _171
REMARK   71  A    between atoms: _176  and  _178
REMARK   72  A    between atoms: _178  and  _179
REMARK   73  A    between atoms: _178  and  _181
REMARK   74  A    between atoms: _181  and  _182
REMARK   75  A    between atoms: _182  and  _183
REMARK   76  A    between atoms: _186  and  _188
REMARK   77  A    between atoms: _188  and  _189
REMARK   78  A    between atoms: _188  and  _191
REMARK   79  A    between atoms: _191  and  _192
REMARK   80  A    between atoms: _192  and  _193
REMARK   81  A    between atoms: _193  and  _194
REMARK   82  A    between atoms: _194  and  _195
REMARK   83  A    between atoms: _199  and  _201
REMARK   84  A    between atoms: _201  and  _202
REMARK   85  A    between atoms: _204  and  _206
REMARK   86  A    between atoms: _206  and  _207
REMARK   87  A    between atoms: _206  and  _209
REMARK   88  A    between atoms: _212  and  _214
REMARK   89  A    between atoms: _214  and  _215
REMARK   90  A    between atoms: _214  and  _217
REMARK   91  A    between atoms: _217  and  _218
REMARK   92  A    between atoms: _220  and  _222
REMARK   93  A    between atoms: _222  and  _223
REMARK   94  A    between atoms: _222  and  _225
REMARK   95  A    between atoms: _225  and  _226
REMARK   96  A    between atoms: _228  and  _230
REMARK   97  A    between atoms: _230  and  _231
REMARK   98  A    between atoms: _230  and  _233
REMARK   99  A    between atoms: _233  and  _234
REMARK  100  A    between atoms: _240  and  _242
REMARK  101  A    between atoms: _242  and  _243
REMARK  102  A    between atoms: _242  and  _245
REMARK  103  A    between atoms: _245  and  _246
REMARK  104  A    between atoms: _249  and  _251
REMARK  105  A    between atoms: _251  and  _252
REMARK  106  A    between atoms: _251  and  _254
REMARK  107  A    between atoms: _254  and  _255
REMARK  108  A    between atoms: _258  and  _260
REMARK  109  A    between atoms: _260  and  _261
REMARK  110  A    between atoms: _260  and  _263
REMARK  111  A    between atoms: _263  and  _264
REMARK  112  A    between atoms: _264  and  _265
REMARK  113  A    between atoms: _267  and  _269
REMARK  114  A    between atoms: _269  and  _270
REMARK  115  A    between atoms: _269  and  _272
REMARK  116  A    between atoms: _272  and  _273
REMARK  117  A    between atoms: _279  and  _281
REMARK  118  A    between atoms: _281  and  _282
REMARK  119  A    between atoms: _281  and  _284
REMARK  120  A    between atoms: _286  and  _288
REMARK  121  A    between atoms: _288  and  _289
REMARK  122  A    between atoms: _292  and  _294
REMARK  123  A    between atoms: _294  and  _295
REMARK  124  A    between atoms: _297  and  _299
REMARK  125  A    between atoms: _299  and  _300
REMARK  126  A    between atoms: _299  and  _302
REMARK  127  A    between atoms: _302  and  _303
REMARK  128  A    between atoms: _303  and  _304
REMARK  129  A    between atoms: _307  and  _309
REMARK  130  A    between atoms: _309  and  _310
REMARK  131  A    between atoms: _309  and  _312
REMARK  132  A    between atoms: _312  and  _313
REMARK  133  A    between atoms: _316  and  _318
REMARK  134  A    between atoms: _318  and  _319
REMARK  135  A    between atoms: _322  and  _324
REMARK  136  A    between atoms: _324  and  _325
REMARK  137  A    between atoms: _324  and  _327
REMARK  138  A    between atoms: _327  and  _328
REMARK  139  A    between atoms: _328  and  _451
REMARK  140  A    between atoms: _329  and  _331
REMARK  141  A    between atoms: _331  and  _332
REMARK  142  A    between atoms: _331  and  _334
REMARK  143  A    between atoms: _334  and  _335
REMARK  144  A    between atoms: _335  and  _336
REMARK  145  A    between atoms: _341  and  _343
REMARK  146  A    between atoms: _343  and  _344
REMARK  147  A    between atoms: _346  and  _348
REMARK  148  A    between atoms: _348  and  _349
REMARK  149  A    between atoms: _348  and  _351
REMARK  150  A    between atoms: _351  and  _352
REMARK  151  A    between atoms: _355  and  _357
REMARK  152  A    between atoms: _357  and  _358
REMARK  153  A    between atoms: _357  and  _360
REMARK  154  A    between atoms: _360  and  _361
REMARK  155  A    between atoms: _363  and  _365
REMARK  156  A    between atoms: _365  and  _366
REMARK  157  A    between atoms: _368  and  _370
REMARK  158  A    between atoms: _370  and  _371
REMARK  159  A    between atoms: _373  and  _375
REMARK  160  A    between atoms: _375  and  _376
REMARK  161  A    between atoms: _375  and  _378
REMARK  162  A    between atoms: _378  and  _379
REMARK  163  A    between atoms: _384  and  _386
REMARK  164  A    between atoms: _386  and  _387
REMARK  165  A    between atoms: _386  and  _389
REMARK  166  A    between atoms: _389  and  _390
REMARK  167  A    between atoms: _393  and  _395
REMARK  168  A    between atoms: _395  and  _396
REMARK  169  A    between atoms: _395  and  _398
REMARK  170  A    between atoms: _401  and  _403
REMARK  171  A    between atoms: _403  and  _404
REMARK  172  A    between atoms: _403  and  _406
REMARK  173  A    between atoms: _406  and  _407
REMARK  174  A    between atoms: _409  and  _411
REMARK  175  A    between atoms: _411  and  _412
REMARK  176  A    between atoms: _411  and  _414
REMARK  177  A    between atoms: _414  and  _415
REMARK  178  A    between atoms: _425  and  _427
REMARK  179  A    between atoms: _427  and  _428
REMARK  180  A    between atoms: _430  and  _432
REMARK  181  A    between atoms: _432  and  _433
REMARK  182  A    between atoms: _432  and  _435
REMARK  183  A    between atoms: _435  and  _436
REMARK  184  A    between atoms: _436  and  _437
REMARK  185  A    between atoms: _440  and  _442
REMARK  186  A    between atoms: _442  and  _443
REMARK  187  A    between atoms: _445  and  _447
REMARK  188  A    between atoms: _447  and  _448
REMARK  189  A    between atoms: _447  and  _450
REMARK  190  A    between atoms: _450  and  _451
REMARK  191  A    between atoms: _452  and  _454
REMARK  192  A    between atoms: _454  and  _455
REMARK  193  A    between atoms: _458  and  _460
REMARK  194  A    between atoms: _460  and  _461
REMARK  195  A    between atoms: _460  and  _463
REMARK  196  A    between atoms: _463  and  _464
REMARK  197  A    between atoms: _464  and  _465
REMARK  198  A    between atoms: _465  and  _466
REMARK  199  A    between atoms: _475  and  _477
REMARK  200  A    between atoms: _477  and  _478
REMARK  201  A    between atoms: _477  and  _480
REMARK  202  A    between atoms: _480  and  _481
REMARK  203  A    between atoms: _481  and  _482
REMARK  204  A    between atoms: _482  and  _483
REMARK  205  A    between atoms: _483  and  _484
REMARK  206  A    between atoms: _488  and  _490
REMARK  207  A    between atoms: _490  and  _491
REMARK  208  A    between atoms: _490  and  _493
REMARK  209  A    between atoms: _493  and  _494
REMARK  210  A    between atoms: _499  and  _500
REMARK  211  A    between atoms: _502  and  _504
REMARK  212  A    between atoms: _504  and  _505
REMARK  213  A    between atoms: _507  and  _509
REMARK  214  A    between atoms: _509  and  _510
REMARK  215  A    between atoms: _509  and  _512
REMARK  216  A    between atoms: _512  and  _513
REMARK  217  A    between atoms: _516  and  _518
REMARK  218  A    between atoms: _518  and  _519
REMARK  219  A    between atoms: _518  and  _521
REMARK  220  A    between atoms: _521  and  _522
REMARK  221  A    between atoms: _527  and  _528
REMARK  222  A    between atoms: _530  and  _532
REMARK  223  A    between atoms: _532  and  _533
REMARK  224  A    between atoms: _532  and  _535
REMARK  225  A    between atoms: _535  and  _536
REMARK                            x       y       z     vdW  Elec       q    Type
REMARK                         _______ _______ _______ _____ _____    ______ ____
ROOT
ATOM      1  O   HOH     1     -11.003   1.934  15.910  0.00  0.00    +0.000 OA
ENDROOT
TORSDOF 0
REMARK  Name = ../refined-set-2016/2jkh/2jkh_pocket.pdb
REMARK  225 active torsions:
REMARK  status: ('A' for Active; 'I' for Inactive)
REMARK    1  A    between atoms: _1  and  _5
REMARK    2  A    between atoms: _5  and  _6
REMARK    3  A    between atoms: _5  and  _8
REMARK    4  A    between atoms: _8  and  _9
REMARK    5  A    between atoms: _12  and  _14
REMARK    6  A    between atoms: _14  and  _15
REMARK    7  A    between atoms: _14  and  _17
REMARK    8  A    between atoms: _20  and  _22
REMARK    9  A    between atoms: _22  and  _23
REMARK   10  A    between atoms: _22  and  _25
REMARK   11  A    between atoms: _25  and  _26
REMARK   12  A    between atoms: _32  and  _34
REMARK   13  A    between atoms: _34  and  _35
REMARK   14  A    between atoms: _34  and  _37
REMARK   15  A    between atoms: _37  and  _38
REMARK   16  A    between atoms: _43  and  _45
REMARK   17  A    between atoms: _45  and  _46
REMARK   18  A    between atoms: _45  and  _48
REMARK   19  A    between atoms: _48  and  _49
REMARK   20  A    between atoms: _49  and  _50
REMARK   21  A    between atoms: _55  and  _57
REMARK   22  A    between atoms: _57  and  _58
REMARK   23  A    between atoms: _57  and  _60
REMARK   24  A    between atoms: _60  and  _61
REMARK   25  A    between atoms: _67  and  _69
REMARK   26  A    between atoms: _69  and  _70
REMARK   27  A    between atoms: _69  and  _72
REMARK   28  A    between atoms: _72  and  _73
REMARK   29  A    between atoms: _76  and  _78
REMARK   30  A    between atoms: _78  and  _79
REMARK   31  A    between atoms: _78  and  _81
REMARK   32  A    between atoms: _81  and  _82
REMARK   33  A    between atoms: _82  and  _83
REMARK   34  A    between atoms: _83  and  _84
REMARK   35  A    between atoms: _84  and  _85
REMARK   36  A    between atoms: _89  and  _91
REMARK   37  A    between atoms: _91  and  _92
REMARK   38  A    between atoms: _91  and  _94
REMARK   39  A    between atoms: _94  and  _95
REMARK   40  A    between atoms: _95  and  _96
REMARK   41  A    between atoms: _99  and  _101
REMARK   42  A    between atoms: _101  and  _102
REMARK   43  A    between atoms: _101  and  _104
REMARK   44  A    between atoms: _104  and  _105
REMARK   45  A    between atoms: _108  and  _110
REMARK   46  A    between atoms: _110  and  _111
REMARK   47  A    between atoms: _110  and  _113
REMARK   48  A    between atoms: _113  and  _114
REMARK   49  A    between atoms: _119  and  _120
REMARK   50  A    between atoms: _122  and  _124
REMARK   51  A    between atoms: _124  and  _125
REMARK   52  A    between atoms: _124  and  _127
REMARK   53  A    between atoms: _127  and  _128
REMARK   54  A    between atoms: _131  and  _133
REMARK   55  A    between atoms: _133  and  _134
REMARK   56  A    between atoms: _133  and  _136
REMARK   57  A    between atoms: _136  and  _137
REMARK   58  A    between atoms: _140  and  _142
REMARK   59  A    between atoms: _142  and  _143
REMARK   60  A    between atoms: _142  and  _145
REMARK   61  A    between atoms: _148  and  _150
REMARK   62  A    between atoms: _150  and  _151
REMARK   63  A    between atoms: _150  and  _153
REMARK   64  A    between atoms: _153  and  _154
REMARK   65  A    between atoms: _154  and  _155
REMARK   66  A    between atoms: _155  and  _156
REMARK   67  A    between atoms: _165  and  _167
REMARK   68  A    between atoms: _167  and  _168
REMARK   69  A    between atoms: _167  and  _170
REMARK   70  A    between atoms: _170  and  _171
REMARK   71  A    between atoms: _176  and  _178
REMARK   72  A    between atoms: _178  and  _179
REMARK   73  A    between atoms: _178  and  _181
REMARK   74  A    between atoms: _181  and  _182
REMARK   75  A    between atoms: _182  and  _183
REMARK   76  A    between atoms: _186  and  _188
REMARK   77  A    between atoms: _188  and  _189
REMARK   78  A    between atoms: _188  and  _191
REMARK   79  A    between atoms: _191  and  _192
REMARK   80  A    between atoms: _192  and  _193
REMARK   81  A    between atoms: _193  and  _194
REMARK   82  A    between atoms: _194  and  _195
REMARK   83  A    between atoms: _199  and  _201
REMARK   84  A    between atoms: _201  and  _202
REMARK   85  A    between atoms: _204  and  _206
REMARK   86  A    between atoms: _206  and  _207
REMARK   87  A    between atoms: _206  and  _209
REMARK   88  A    between atoms: _212  and  _214
REMARK   89  A    between atoms: _214  and  _215
REMARK   90  A    between atoms: _214  and  _217
REMARK   91  A    between atoms: _217  and  _218
REMARK   92  A    between atoms: _220  and  _222
REMARK   93  A    between atoms: _222  and  _223
REMARK   94  A    between atoms: _222  and  _225
REMARK   95  A    between atoms: _225  and  _226
REMARK   96  A    between atoms: _228  and  _230
REMARK   97  A    between atoms: _230  and  _231
REMARK   98  A    between atoms: _230  and  _233
REMARK   99  A    between atoms: _233  and  _234
REMARK  100  A    between atoms: _240  and  _242
REMARK  101  A    between atoms: _242  and  _243
REMARK  102  A    between atoms: _242  and  _245
REMARK  103  A    between atoms: _245  and  _246
REMARK  104  A    between atoms: _249  and  _251
REMARK  105  A    between atoms: _251  and  _252
REMARK  106  A    between atoms: _251  and  _254
REMARK  107  A    between atoms: _254  and  _255
REMARK  108  A    between atoms: _258  and  _260
REMARK  109  A    between atoms: _260  and  _261
REMARK  110  A    between atoms: _260  and  _263
REMARK  111  A    between atoms: _263  and  _264
REMARK  112  A    between atoms: _264  and  _265
REMARK  113  A    between atoms: _267  and  _269
REMARK  114  A    between atoms: _269  and  _270
REMARK  115  A    between atoms: _269  and  _272
REMARK  116  A    between atoms: _272  and  _273
REMARK  117  A    between atoms: _279  and  _281
REMARK  118  A    between atoms: _281  and  _282
REMARK  119  A    between atoms: _281  and  _284
REMARK  120  A    between atoms: _286  and  _288
REMARK  121  A    between atoms: _288  and  _289
REMARK  122  A    between atoms: _292  and  _294
REMARK  123  A    between atoms: _294  and  _295
REMARK  124  A    between atoms: _297  and  _299
REMARK  125  A    between atoms: _299  and  _300
REMARK  126  A    between atoms: _299  and  _302
REMARK  127  A    between atoms: _302  and  _303
REMARK  128  A    between atoms: _303  and  _304
REMARK  129  A    between atoms: _307  and  _309
REMARK  130  A    between atoms: _309  and  _310
REMARK  131  A    between atoms: _309  and  _312
REMARK  132  A    between atoms: _312  and  _313
REMARK  133  A    between atoms: _316  and  _318
REMARK  134  A    between atoms: _318  and  _319
REMARK  135  A    between atoms: _322  and  _324
REMARK  136  A    between atoms: _324  and  _325
REMARK  137  A    between atoms: _324  and  _327
REMARK  138  A    between atoms: _327  and  _328
REMARK  139  A    between atoms: _328  and  _451
REMARK  140  A    between atoms: _329  and  _331
REMARK  141  A    between atoms: _331  and  _332
REMARK  142  A    between atoms: _331  and  _334
REMARK  143  A    between atoms: _334  and  _335
REMARK  144  A    between atoms: _335  and  _336
REMARK  145  A    between atoms: _341  and  _343
REMARK  146  A    between atoms: _343  and  _344
REMARK  147  A    between atoms: _346  and  _348
REMARK  148  A    between atoms: _348  and  _349
REMARK  149  A    between atoms: _348  and  _351
REMARK  150  A    between atoms: _351  and  _352
REMARK  151  A    between atoms: _355  and  _357
REMARK  152  A    between atoms: _357  and  _358
REMARK  153  A    between atoms: _357  and  _360
REMARK  154  A    between atoms: _360  and  _361
REMARK  155  A    between atoms: _363  and  _365
REMARK  156  A    between atoms: _365  and  _366
REMARK  157  A    between atoms: _368  and  _370
REMARK  158  A    between atoms: _370  and  _371
REMARK  159  A    between atoms: _373  and  _375
REMARK  160  A    between atoms: _375  and  _376
REMARK  161  A    between atoms: _375  and  _378
REMARK  162  A    between atoms: _378  and  _379
REMARK  163  A    between atoms: _384  and  _386
REMARK  164  A    between atoms: _386  and  _387
REMARK  165  A    between atoms: _386  and  _389
REMARK  166  A    between atoms: _389  and  _390
REMARK  167  A    between atoms: _393  and  _395
REMARK  168  A    between atoms: _395  and  _396
REMARK  169  A    between atoms: _395  and  _398
REMARK  170  A    between atoms: _401  and  _403
REMARK  171  A    between atoms: _403  and  _404
REMARK  172  A    between atoms: _403  and  _406
REMARK  173  A    between atoms: _406  and  _407
REMARK  174  A    between atoms: _409  and  _411
REMARK  175  A    between atoms: _411  and  _412
REMARK  176  A    between atoms: _411  and  _414
REMARK  177  A    between atoms: _414  and  _415
REMARK  178  A    between atoms: _425  and  _427
REMARK  179  A    between atoms: _427  and  _428
REMARK  180  A    between atoms: _430  and  _432
REMARK  181  A    between atoms: _432  and  _433
REMARK  182  A    between atoms: _432  and  _435
REMARK  183  A    between atoms: _435  and  _436
REMARK  184  A    between atoms: _436  and  _437
REMARK  185  A    between atoms: _440  and  _442
REMARK  186  A    between atoms: _442  and  _443
REMARK  187  A    between atoms: _445  and  _447
REMARK  188  A    between atoms: _447  and  _448
REMARK  189  A    between atoms: _447  and  _450
REMARK  190  A    between atoms: _450  and  _451
REMARK  191  A    between atoms: _452  and  _454
REMARK  192  A    between atoms: _454  and  _455
REMARK  193  A    between atoms: _458  and  _460
REMARK  194  A    between atoms: _460  and  _461
REMARK  195  A    between atoms: _460  and  _463
REMARK  196  A    between atoms: _463  and  _464
REMARK  197  A    between atoms: _464  and  _465
REMARK  198  A    between atoms: _465  and  _466
REMARK  199  A    between atoms: _475  and  _477
REMARK  200  A    between atoms: _477  and  _478
REMARK  201  A    between atoms: _477  and  _480
REMARK  202  A    between atoms: _480  and  _481
REMARK  203  A    between atoms: _481  and  _482
REMARK  204  A    between atoms: _482  and  _483
REMARK  205  A    between atoms: _483  and  _484
REMARK  206  A    between atoms: _488  and  _490
REMARK  207  A    between atoms: _490  and  _491
REMARK  208  A    between atoms: _490  and  _493
REMARK  209  A    between atoms: _493  and  _494
REMARK  210  A    between atoms: _499  and  _500
REMARK  211  A    between atoms: _502  and  _504
REMARK  212  A    between atoms: _504  and  _505
REMARK  213  A    between atoms: _507  and  _509
REMARK  214  A    between atoms: _509  and  _510
REMARK  215  A    between atoms: _509  and  _512
REMARK  216  A    between atoms: _512  and  _513
REMARK  217  A    between atoms: _516  and  _518
REMARK  218  A    between atoms: _518  and  _519
REMARK  219  A    between atoms: _518  and  _521
REMARK  220  A    between atoms: _521  and  _522
REMARK  221  A    between atoms: _527  and  _528
REMARK  222  A    between atoms: _530  and  _532
REMARK  223  A    between atoms: _532  and  _533
REMARK  224  A    between atoms: _532  and  _535
REMARK  225  A    between atoms: _535  and  _536
REMARK                            x       y       z     vdW  Elec       q    Type
REMARK                         _______ _______ _______ _____ _____    ______ ____
ROOT
ATOM      1  O   HOH     1      -4.572   4.869  34.215  0.00  0.00    +0.000 OA
ENDROOT
TORSDOF 0
REMARK  Name = ../refined-set-2016/2jkh/2jkh_pocket.pdb
REMARK  225 active torsions:
REMARK  status: ('A' for Active; 'I' for Inactive)
REMARK    1  A    between atoms: _1  and  _5
REMARK    2  A    between atoms: _5  and  _6
REMARK    3  A    between atoms: _5  and  _8
REMARK    4  A    between atoms: _8  and  _9
REMARK    5  A    between atoms: _12  and  _14
REMARK    6  A    between atoms: _14  and  _15
REMARK    7  A    between atoms: _14  and  _17
REMARK    8  A    between atoms: _20  and  _22
REMARK    9  A    between atoms: _22  and  _23
REMARK   10  A    between atoms: _22  and  _25
REMARK   11  A    between atoms: _25  and  _26
REMARK   12  A    between atoms: _32  and  _34
REMARK   13  A    between atoms: _34  and  _35
REMARK   14  A    between atoms: _34  and  _37
REMARK   15  A    between atoms: _37  and  _38
REMARK   16  A    between atoms: _43  and  _45
REMARK   17  A    between atoms: _45  and  _46
REMARK   18  A    between atoms: _45  and  _48
REMARK   19  A    between atoms: _48  and  _49
REMARK   20  A    between atoms: _49  and  _50
REMARK   21  A    between atoms: _55  and  _57
REMARK   22  A    between atoms: _57  and  _58
REMARK   23  A    between atoms: _57  and  _60
REMARK   24  A    between atoms: _60  and  _61
REMARK   25  A    between atoms: _67  and  _69
REMARK   26  A    between atoms: _69  and  _70
REMARK   27  A    between atoms: _69  and  _72
REMARK   28  A    between atoms: _72  and  _73
REMARK   29  A    between atoms: _76  and  _78
REMARK   30  A    between atoms: _78  and  _79
REMARK   31  A    between atoms: _78  and  _81
REMARK   32  A    between atoms: _81  and  _82
REMARK   33  A    between atoms: _82  and  _83
REMARK   34  A    between atoms: _83  and  _84
REMARK   35  A    between atoms: _84  and  _85
REMARK   36  A    between atoms: _89  and  _91
REMARK   37  A    between atoms: _91  and  _92
REMARK   38  A    between atoms: _91  and  _94
REMARK   39  A    between atoms: _94  and  _95
REMARK   40  A    between atoms: _95  and  _96
REMARK   41  A    between atoms: _99  and  _101
REMARK   42  A    between atoms: _101  and  _102
REMARK   43  A    between atoms: _101  and  _104
REMARK   44  A    between atoms: _104  and  _105
REMARK   45  A    between atoms: _108  and  _110
REMARK   46  A    between atoms: _110  and  _111
REMARK   47  A    between atoms: _110  and  _113
REMARK   48  A    between atoms: _113  and  _114
REMARK   49  A    between atoms: _119  and  _120
REMARK   50  A    between atoms: _122  and  _124
REMARK   51  A    between atoms: _124  and  _125
REMARK   52  A    between atoms: _124  and  _127
REMARK   53  A    between atoms: _127  and  _128
REMARK   54  A    between atoms: _131  and  _133
REMARK   55  A    between atoms: _133  and  _134
REMARK   56  A    between atoms: _133  and  _136
REMARK   57  A    between atoms: _136  and  _137
REMARK   58  A    between atoms: _140  and  _142
REMARK   59  A    between atoms: _142  and  _143
REMARK   60  A    between atoms: _142  and  _145
REMARK   61  A    between atoms: _148  and  _150
REMARK   62  A    between atoms: _150  and  _151
REMARK   63  A    between atoms: _150  and  _153
REMARK   64  A    between atoms: _153  and  _154
REMARK   65  A    between atoms: _154  and  _155
REMARK   66  A    between atoms: _155  and  _156
REMARK   67  A    between atoms: _165  and  _167
REMARK   68  A    between atoms: _167  and  _168
REMARK   69  A    between atoms: _167  and  _170
REMARK   70  A    between atoms: _170  and  _171
REMARK   71  A    between atoms: _176  and  _178
REMARK   72  A    between atoms: _178  and  _179
REMARK   73  A    between atoms: _178  and  _181
REMARK   74  A    between atoms: _181  and  _182
REMARK   75  A    between atoms: _182  and  _183
REMARK   76  A    between atoms: _186  and  _188
REMARK   77  A    between atoms: _188  and  _189
REMARK   78  A    between atoms: _188  and  _191
REMARK   79  A    between atoms: _191  and  _192
REMARK   80  A    between atoms: _192  and  _193
REMARK   81  A    between atoms: _193  and  _194
REMARK   82  A    between atoms: _194  and  _195
REMARK   83  A    between atoms: _199  and  _201
REMARK   84  A    between atoms: _201  and  _202
REMARK   85  A    between atoms: _204  and  _206
REMARK   86  A    between atoms: _206  and  _207
REMARK   87  A    between atoms: _206  and  _209
REMARK   88  A    between atoms: _212  and  _214
REMARK   89  A    between atoms: _214  and  _215
REMARK   90  A    between atoms: _214  and  _217
REMARK   91  A    between atoms: _217  and  _218
REMARK   92  A    between atoms: _220  and  _222
REMARK   93  A    between atoms: _222  and  _223
REMARK   94  A    between atoms: _222  and  _225
REMARK   95  A    between atoms: _225  and  _226
REMARK   96  A    between atoms: _228  and  _230
REMARK   97  A    between atoms: _230  and  _231
REMARK   98  A    between atoms: _230  and  _233
REMARK   99  A    between atoms: _233  and  _234
REMARK  100  A    between atoms: _240  and  _242
REMARK  101  A    between atoms: _242  and  _243
REMARK  102  A    between atoms: _242  and  _245
REMARK  103  A    between atoms: _245  and  _246
REMARK  104  A    between atoms: _249  and  _251
REMARK  105  A    between atoms: _251  and  _252
REMARK  106  A    between atoms: _251  and  _254
REMARK  107  A    between atoms: _254  and  _255
REMARK  108  A    between atoms: _258  and  _260
REMARK  109  A    between atoms: _260  and  _261
REMARK  110  A    between atoms: _260  and  _263
REMARK  111  A    between atoms: _263  and  _264
REMARK  112  A    between atoms: _264  and  _265
REMARK  113  A    between atoms: _267  and  _269
REMARK  114  A    between atoms: _269  and  _270
REMARK  115  A    between atoms: _269  and  _272
REMARK  116  A    between atoms: _272  and  _273
REMARK  117  A    between atoms: _279  and  _281
REMARK  118  A    between atoms: _281  and  _282
REMARK  119  A    between atoms: _281  and  _284
REMARK  120  A    between atoms: _286  and  _288
REMARK  121  A    between atoms: _288  and  _289
REMARK  122  A    between atoms: _292  and  _294
REMARK  123  A    between atoms: _294  and  _295
REMARK  124  A    between atoms: _297  and  _299
REMARK  125  A    between atoms: _299  and  _300
REMARK  126  A    between atoms: _299  and  _302
REMARK  127  A    between atoms: _302  and  _303
REMARK  128  A    between atoms: _303  and  _304
REMARK  129  A    between atoms: _307  and  _309
REMARK  130  A    between atoms: _309  and  _310
REMARK  131  A    between atoms: _309  and  _312
REMARK  132  A    between atoms: _312  and  _313
REMARK  133  A    between atoms: _316  and  _318
REMARK  134  A    between atoms: _318  and  _319
REMARK  135  A    between atoms: _322  and  _324
REMARK  136  A    between atoms: _324  and  _325
REMARK  137  A    between atoms: _324  and  _327
REMARK  138  A    between atoms: _327  and  _328
REMARK  139  A    between atoms: _328  and  _451
REMARK  140  A    between atoms: _329  and  _331
REMARK  141  A    between atoms: _331  and  _332
REMARK  142  A    between atoms: _331  and  _334
REMARK  143  A    between atoms: _334  and  _335
REMARK  144  A    between atoms: _335  and  _336
REMARK  145  A    between atoms: _341  and  _343
REMARK  146  A    between atoms: _343  and  _344
REMARK  147  A    between atoms: _346  and  _348
REMARK  148  A    between atoms: _348  and  _349
REMARK  149  A    between atoms: _348  and  _351
REMARK  150  A    between atoms: _351  and  _352
REMARK  151  A    between atoms: _355  and  _357
REMARK  152  A    between atoms: _357  and  _358
REMARK  153  A    between atoms: _357  and  _360
REMARK  154  A    between atoms: _360  and  _361
REMARK  155  A    between atoms: _363  and  _365
REMARK  156  A    between atoms: _365  and  _366
REMARK  157  A    between atoms: _368  and  _370
REMARK  158  A    between atoms: _370  and  _371
REMARK  159  A    between atoms: _373  and  _375
REMARK  160  A    between atoms: _375  and  _376
REMARK  161  A    between atoms: _375  and  _378
REMARK  162  A    between atoms: _378  and  _379
REMARK  163  A    between atoms: _384  and  _386
REMARK  164  A    between atoms: _386  and  _387
REMARK  165  A    between atoms: _386  and  _389
REMARK  166  A    between atoms: _389  and  _390
REMARK  167  A    between atoms: _393  and  _395
REMARK  168  A    between atoms: _395  and  _396
REMARK  169  A    between atoms: _395  and  _398
REMARK  170  A    between atoms: _401  and  _403
REMARK  171  A    between atoms: _403  and  _404
REMARK  172  A    between atoms: _403  and  _406
REMARK  173  A    between atoms: _406  and  _407
REMARK  174  A    between atoms: _409  and  _411
REMARK  175  A    between atoms: _411  and  _412
REMARK  176  A    between atoms: _411  and  _414
REMARK  177  A    between atoms: _414  and  _415
REMARK  178  A    between atoms: _425  and  _427
REMARK  179  A    between atoms: _427  and  _428
REMARK  180  A    between atoms: _430  and  _432
REMARK  181  A    between atoms: _432  and  _433
REMARK  182  A    between atoms: _432  and  _435
REMARK  183  A    between atoms: _435  and  _436
REMARK  184  A    between atoms: _436  and  _437
REMARK  185  A    between atoms: _440  and  _442
REMARK  186  A    between atoms: _442  and  _443
REMARK  187  A    between atoms: _445  and  _447
REMARK  188  A    between atoms: _447  and  _448
REMARK  189  A    between atoms: _447  and  _450
REMARK  190  A    between atoms: _450  and  _451
REMARK  191  A    between atoms: _452  and  _454
REMARK  192  A    between atoms: _454  and  _455
REMARK  193  A    between atoms: _458  and  _460
REMARK  194  A    between atoms: _460  and  _461
REMARK  195  A    between atoms: _460  and  _463
REMARK  196  A    between atoms: _463  and  _464
REMARK  197  A    between atoms: _464  and  _465
REMARK  198  A    between atoms: _465  and  _466
REMARK  199  A    between atoms: _475  and  _477
REMARK  200  A    between atoms: _477  and  _478
REMARK  201  A    between atoms: _477  and  _480
REMARK  202  A    between atoms: _480  and  _481
REMARK  203  A    between atoms: _481  and  _482
REMARK  204  A    between atoms: _482  and  _483
REMARK  205  A    between atoms: _483  and  _484
REMARK  206  A    between atoms: _488  and  _490
REMARK  207  A    between atoms: _490  and  _491
REMARK  208  A    between atoms: _490  and  _493
REMARK  209  A    between atoms: _493  and  _494
REMARK  210  A    between atoms: _499  and  _500
REMARK  211  A    between atoms: _502  and  _504
REMARK  212  A    between atoms: _504  and  _505
REMARK  213  A    between atoms: _507  and  _509
REMARK  214  A    between atoms: _509  and  _510
REMARK  215  A    between atoms: _509  and  _512
REMARK  216  A    between atoms: _512  and  _513
REMARK  217  A    between atoms: _516  and  _518
REMARK  218  A    between atoms: _518  and  _519
REMARK  219  A    between atoms: _518  and  _521
REMARK  220  A    between atoms: _521  and  _522
REMARK  221  A    between atoms: _527  and  _528
REMARK  222  A    between atoms: _530  and  _532
REMARK  223  A    between atoms: _532  and  _533
REMARK  224  A    between atoms: _532  and  _535
REMARK  225  A    between atoms: _535  and  _536
REMARK                            x       y       z     vdW  Elec       q    Type
REMARK                         _______ _______ _______ _____ _____    ______ ____
ROOT
ATOM      1  O   HOH     1      -5.675   7.259  29.090  0.00  0.00    +0.000 OA
ENDROOT
TORSDOF 0
REMARK  Name = ../refined-set-2016/2jkh/2jkh_pocket.pdb
REMARK  225 active torsions:
REMARK  status: ('A' for Active; 'I' for Inactive)
REMARK    1  A    between atoms: _1  and  _5
REMARK    2  A    between atoms: _5  and  _6
REMARK    3  A    between atoms: _5  and  _8
REMARK    4  A    between atoms: _8  and  _9
REMARK    5  A    between atoms: _12  and  _14
REMARK    6  A    between atoms: _14  and  _15
REMARK    7  A    between atoms: _14  and  _17
REMARK    8  A    between atoms: _20  and  _22
REMARK    9  A    between atoms: _22  and  _23
REMARK   10  A    between atoms: _22  and  _25
REMARK   11  A    between atoms: _25  and  _26
REMARK   12  A    between atoms: _32  and  _34
REMARK   13  A    between atoms: _34  and  _35
REMARK   14  A    between atoms: _34  and  _37
REMARK   15  A    between atoms: _37  and  _38
REMARK   16  A    between atoms: _43  and  _45
REMARK   17  A    between atoms: _45  and  _46
REMARK   18  A    between atoms: _45  and  _48
REMARK   19  A    between atoms: _48  and  _49
REMARK   20  A    between atoms: _49  and  _50
REMARK   21  A    between atoms: _55  and  _57
REMARK   22  A    between atoms: _57  and  _58
REMARK   23  A    between atoms: _57  and  _60
REMARK   24  A    between atoms: _60  and  _61
REMARK   25  A    between atoms: _67  and  _69
REMARK   26  A    between atoms: _69  and  _70
REMARK   27  A    between atoms: _69  and  _72
REMARK   28  A    between atoms: _72  and  _73
REMARK   29  A    between atoms: _76  and  _78
REMARK   30  A    between atoms: _78  and  _79
REMARK   31  A    between atoms: _78  and  _81
REMARK   32  A    between atoms: _81  and  _82
REMARK   33  A    between atoms: _82  and  _83
REMARK   34  A    between atoms: _83  and  _84
REMARK   35  A    between atoms: _84  and  _85
REMARK   36  A    between atoms: _89  and  _91
REMARK   37  A    between atoms: _91  and  _92
REMARK   38  A    between atoms: _91  and  _94
REMARK   39  A    between atoms: _94  and  _95
REMARK   40  A    between atoms: _95  and  _96
REMARK   41  A    between atoms: _99  and  _101
REMARK   42  A    between atoms: _101  and  _102
REMARK   43  A    between atoms: _101  and  _104
REMARK   44  A    between atoms: _104  and  _105
REMARK   45  A    between atoms: _108  and  _110
REMARK   46  A    between atoms: _110  and  _111
REMARK   47  A    between atoms: _110  and  _113
REMARK   48  A    between atoms: _113  and  _114
REMARK   49  A    between atoms: _119  and  _120
REMARK   50  A    between atoms: _122  and  _124
REMARK   51  A    between atoms: _124  and  _125
REMARK   52  A    between atoms: _124  and  _127
REMARK   53  A    between atoms: _127  and  _128
REMARK   54  A    between atoms: _131  and  _133
REMARK   55  A    between atoms: _133  and  _134
REMARK   56  A    between atoms: _133  and  _136
REMARK   57  A    between atoms: _136  and  _137
REMARK   58  A    between atoms: _140  and  _142
REMARK   59  A    between atoms: _142  and  _143
REMARK   60  A    between atoms: _142  and  _145
REMARK   61  A    between atoms: _148  and  _150
REMARK   62  A    between atoms: _150  and  _151
REMARK   63  A    between atoms: _150  and  _153
REMARK   64  A    between atoms: _153  and  _154
REMARK   65  A    between atoms: _154  and  _155
REMARK   66  A    between atoms: _155  and  _156
REMARK   67  A    between atoms: _165  and  _167
REMARK   68  A    between atoms: _167  and  _168
REMARK   69  A    between atoms: _167  and  _170
REMARK   70  A    between atoms: _170  and  _171
REMARK   71  A    between atoms: _176  and  _178
REMARK   72  A    between atoms: _178  and  _179
REMARK   73  A    between atoms: _178  and  _181
REMARK   74  A    between atoms: _181  and  _182
REMARK   75  A    between atoms: _182  and  _183
REMARK   76  A    between atoms: _186  and  _188
REMARK   77  A    between atoms: _188  and  _189
REMARK   78  A    between atoms: _188  and  _191
REMARK   79  A    between atoms: _191  and  _192
REMARK   80  A    between atoms: _192  and  _193
REMARK   81  A    between atoms: _193  and  _194
REMARK   82  A    between atoms: _194  and  _195
REMARK   83  A    between atoms: _199  and  _201
REMARK   84  A    between atoms: _201  and  _202
REMARK   85  A    between atoms: _204  and  _206
REMARK   86  A    between atoms: _206  and  _207
REMARK   87  A    between atoms: _206  and  _209
REMARK   88  A    between atoms: _212  and  _214
REMARK   89  A    between atoms: _214  and  _215
REMARK   90  A    between atoms: _214  and  _217
REMARK   91  A    between atoms: _217  and  _218
REMARK   92  A    between atoms: _220  and  _222
REMARK   93  A    between atoms: _222  and  _223
REMARK   94  A    between atoms: _222  and  _225
REMARK   95  A    between atoms: _225  and  _226
REMARK   96  A    between atoms: _228  and  _230
REMARK   97  A    between atoms: _230  and  _231
REMARK   98  A    between atoms: _230  and  _233
REMARK   99  A    between atoms: _233  and  _234
REMARK  100  A    between atoms: _240  and  _242
REMARK  101  A    between atoms: _242  and  _243
REMARK  102  A    between atoms: _242  and  _245
REMARK  103  A    between atoms: _245  and  _246
REMARK  104  A    between atoms: _249  and  _251
REMARK  105  A    between atoms: _251  and  _252
REMARK  106  A    between atoms: _251  and  _254
REMARK  107  A    between atoms: _254  and  _255
REMARK  108  A    between atoms: _258  and  _260
REMARK  109  A    between atoms: _260  and  _261
REMARK  110  A    between atoms: _260  and  _263
REMARK  111  A    between atoms: _263  and  _264
REMARK  112  A    between atoms: _264  and  _265
REMARK  113  A    between atoms: _267  and  _269
REMARK  114  A    between atoms: _269  and  _270
REMARK  115  A    between atoms: _269  and  _272
REMARK  116  A    between atoms: _272  and  _273
REMARK  117  A    between atoms: _279  and  _281
REMARK  118  A    between atoms: _281  and  _282
REMARK  119  A    between atoms: _281  and  _284
REMARK  120  A    between atoms: _286  and  _288
REMARK  121  A    between atoms: _288  and  _289
REMARK  122  A    between atoms: _292  and  _294
REMARK  123  A    between atoms: _294  and  _295
REMARK  124  A    between atoms: _297  and  _299
REMARK  125  A    between atoms: _299  and  _300
REMARK  126  A    between atoms: _299  and  _302
REMARK  127  A    between atoms: _302  and  _303
REMARK  128  A    between atoms: _303  and  _304
REMARK  129  A    between atoms: _307  and  _309
REMARK  130  A    between atoms: _309  and  _310
REMARK  131  A    between atoms: _309  and  _312
REMARK  132  A    between atoms: _312  and  _313
REMARK  133  A    between atoms: _316  and  _318
REMARK  134  A    between atoms: _318  and  _319
REMARK  135  A    between atoms: _322  and  _324
REMARK  136  A    between atoms: _324  and  _325
REMARK  137  A    between atoms: _324  and  _327
REMARK  138  A    between atoms: _327  and  _328
REMARK  139  A    between atoms: _328  and  _451
REMARK  140  A    between atoms: _329  and  _331
REMARK  141  A    between atoms: _331  and  _332
REMARK  142  A    between atoms: _331  and  _334
REMARK  143  A    between atoms: _334  and  _335
REMARK  144  A    between atoms: _335  and  _336
REMARK  145  A    between atoms: _341  and  _343
REMARK  146  A    between atoms: _343  and  _344
REMARK  147  A    between atoms: _346  and  _348
REMARK  148  A    between atoms: _348  and  _349
REMARK  149  A    between atoms: _348  and  _351
REMARK  150  A    between atoms: _351  and  _352
REMARK  151  A    between atoms: _355  and  _357
REMARK  152  A    between atoms: _357  and  _358
REMARK  153  A    between atoms: _357  and  _360
REMARK  154  A    between atoms: _360  and  _361
REMARK  155  A    between atoms: _363  and  _365
REMARK  156  A    between atoms: _365  and  _366
REMARK  157  A    between atoms: _368  and  _370
REMARK  158  A    between atoms: _370  and  _371
REMARK  159  A    between atoms: _373  and  _375
REMARK  160  A    between atoms: _375  and  _376
REMARK  161  A    between atoms: _375  and  _378
REMARK  162  A    between atoms: _378  and  _379
REMARK  163  A    between atoms: _384  and  _386
REMARK  164  A    between atoms: _386  and  _387
REMARK  165  A    between atoms: _386  and  _389
REMARK  166  A    between atoms: _389  and  _390
REMARK  167  A    between atoms: _393  and  _395
REMARK  168  A    between atoms: _395  and  _396
REMARK  169  A    between atoms: _395  and  _398
REMARK  170  A    between atoms: _401  and  _403
REMARK  171  A    between atoms: _403  and  _404
REMARK  172  A    between atoms: _403  and  _406
REMARK  173  A    between atoms: _406  and  _407
REMARK  174  A    between atoms: _409  and  _411
REMARK  175  A    between atoms: _411  and  _412
REMARK  176  A    between atoms: _411  and  _414
REMARK  177  A    between atoms: _414  and  _415
REMARK  178  A    between atoms: _425  and  _427
REMARK  179  A    between atoms: _427  and  _428
REMARK  180  A    between atoms: _430  and  _432
REMARK  181  A    between atoms: _432  and  _433
REMARK  182  A    between atoms: _432  and  _435
REMARK  183  A    between atoms: _435  and  _436
REMARK  184  A    between atoms: _436  and  _437
REMARK  185  A    between atoms: _440  and  _442
REMARK  186  A    between atoms: _442  and  _443
REMARK  187  A    between atoms: _445  and  _447
REMARK  188  A    between atoms: _447  and  _448
REMARK  189  A    between atoms: _447  and  _450
REMARK  190  A    between atoms: _450  and  _451
REMARK  191  A    between atoms: _452  and  _454
REMARK  192  A    between atoms: _454  and  _455
REMARK  193  A    between atoms: _458  and  _460
REMARK  194  A    between atoms: _460  and  _461
REMARK  195  A    between atoms: _460  and  _463
REMARK  196  A    between atoms: _463  and  _464
REMARK  197  A    between atoms: _464  and  _465
REMARK  198  A    between atoms: _465  and  _466
REMARK  199  A    between atoms: _475  and  _477
REMARK  200  A    between atoms: _477  and  _478
REMARK  201  A    between atoms: _477  and  _480
REMARK  202  A    between atoms: _480  and  _481
REMARK  203  A    between atoms: _481  and  _482
REMARK  204  A    between atoms: _482  and  _483
REMARK  205  A    between atoms: _483  and  _484
REMARK  206  A    between atoms: _488  and  _490
REMARK  207  A    between atoms: _490  and  _491
REMARK  208  A    between atoms: _490  and  _493
REMARK  209  A    between atoms: _493  and  _494
REMARK  210  A    between atoms: _499  and  _500
REMARK  211  A    between atoms: _502  and  _504
REMARK  212  A    between atoms: _504  and  _505
REMARK  213  A    between atoms: _507  and  _509
REMARK  214  A    between atoms: _509  and  _510
REMARK  215  A    between atoms: _509  and  _512
REMARK  216  A    between atoms: _512  and  _513
REMARK  217  A    between atoms: _516  and  _518
REMARK  218  A    between atoms: _518  and  _519
REMARK  219  A    between atoms: _518  and  _521
REMARK  220  A    between atoms: _521  and  _522
REMARK  221  A    between atoms: _527  and  _528
REMARK  222  A    between atoms: _530  and  _532
REMARK  223  A    between atoms: _532  and  _533
REMARK  224  A    between atoms: _532  and  _535
REMARK  225  A    between atoms: _535  and  _536
REMARK                            x       y       z     vdW  Elec       q    Type
REMARK                         _______ _______ _______ _____ _____    ______ ____
ROOT
ATOM      1  O   HOH     1       2.069  12.411  21.216  0.00  0.00    +0.000 OA
ENDROOT
TORSDOF 0
REMARK  Name = ../refined-set-2016/2jkh/2jkh_pocket.pdb
REMARK  225 active torsions:
REMARK  status: ('A' for Active; 'I' for Inactive)
REMARK    1  A    between atoms: _1  and  _5
REMARK    2  A    between atoms: _5  and  _6
REMARK    3  A    between atoms: _5  and  _8
REMARK    4  A    between atoms: _8  and  _9
REMARK    5  A    between atoms: _12  and  _14
REMARK    6  A    between atoms: _14  and  _15
REMARK    7  A    between atoms: _14  and  _17
REMARK    8  A    between atoms: _20  and  _22
REMARK    9  A    between atoms: _22  and  _23
REMARK   10  A    between atoms: _22  and  _25
REMARK   11  A    between atoms: _25  and  _26
REMARK   12  A    between atoms: _32  and  _34
REMARK   13  A    between atoms: _34  and  _35
REMARK   14  A    between atoms: _34  and  _37
REMARK   15  A    between atoms: _37  and  _38
REMARK   16  A    between atoms: _43  and  _45
REMARK   17  A    between atoms: _45  and  _46
REMARK   18  A    between atoms: _45  and  _48
REMARK   19  A    between atoms: _48  and  _49
REMARK   20  A    between atoms: _49  and  _50
REMARK   21  A    between atoms: _55  and  _57
REMARK   22  A    between atoms: _57  and  _58
REMARK   23  A    between atoms: _57  and  _60
REMARK   24  A    between atoms: _60  and  _61
REMARK   25  A    between atoms: _67  and  _69
REMARK   26  A    between atoms: _69  and  _70
REMARK   27  A    between atoms: _69  and  _72
REMARK   28  A    between atoms: _72  and  _73
REMARK   29  A    between atoms: _76  and  _78
REMARK   30  A    between atoms: _78  and  _79
REMARK   31  A    between atoms: _78  and  _81
REMARK   32  A    between atoms: _81  and  _82
REMARK   33  A    between atoms: _82  and  _83
REMARK   34  A    between atoms: _83  and  _84
REMARK   35  A    between atoms: _84  and  _85
REMARK   36  A    between atoms: _89  and  _91
REMARK   37  A    between atoms: _91  and  _92
REMARK   38  A    between atoms: _91  and  _94
REMARK   39  A    between atoms: _94  and  _95
REMARK   40  A    between atoms: _95  and  _96
REMARK   41  A    between atoms: _99  and  _101
REMARK   42  A    between atoms: _101  and  _102
REMARK   43  A    between atoms: _101  and  _104
REMARK   44  A    between atoms: _104  and  _105
REMARK   45  A    between atoms: _108  and  _110
REMARK   46  A    between atoms: _110  and  _111
REMARK   47  A    between atoms: _110  and  _113
REMARK   48  A    between atoms: _113  and  _114
REMARK   49  A    between atoms: _119  and  _120
REMARK   50  A    between atoms: _122  and  _124
REMARK   51  A    between atoms: _124  and  _125
REMARK   52  A    between atoms: _124  and  _127
REMARK   53  A    between atoms: _127  and  _128
REMARK   54  A    between atoms: _131  and  _133
REMARK   55  A    between atoms: _133  and  _134
REMARK   56  A    between atoms: _133  and  _136
REMARK   57  A    between atoms: _136  and  _137
REMARK   58  A    between atoms: _140  and  _142
REMARK   59  A    between atoms: _142  and  _143
REMARK   60  A    between atoms: _142  and  _145
REMARK   61  A    between atoms: _148  and  _150
REMARK   62  A    between atoms: _150  and  _151
REMARK   63  A    between atoms: _150  and  _153
REMARK   64  A    between atoms: _153  and  _154
REMARK   65  A    between atoms: _154  and  _155
REMARK   66  A    between atoms: _155  and  _156
REMARK   67  A    between atoms: _165  and  _167
REMARK   68  A    between atoms: _167  and  _168
REMARK   69  A    between atoms: _167  and  _170
REMARK   70  A    between atoms: _170  and  _171
REMARK   71  A    between atoms: _176  and  _178
REMARK   72  A    between atoms: _178  and  _179
REMARK   73  A    between atoms: _178  and  _181
REMARK   74  A    between atoms: _181  and  _182
REMARK   75  A    between atoms: _182  and  _183
REMARK   76  A    between atoms: _186  and  _188
REMARK   77  A    between atoms: _188  and  _189
REMARK   78  A    between atoms: _188  and  _191
REMARK   79  A    between atoms: _191  and  _192
REMARK   80  A    between atoms: _192  and  _193
REMARK   81  A    between atoms: _193  and  _194
REMARK   82  A    between atoms: _194  and  _195
REMARK   83  A    between atoms: _199  and  _201
REMARK   84  A    between atoms: _201  and  _202
REMARK   85  A    between atoms: _204  and  _206
REMARK   86  A    between atoms: _206  and  _207
REMARK   87  A    between atoms: _206  and  _209
REMARK   88  A    between atoms: _212  and  _214
REMARK   89  A    between atoms: _214  and  _215
REMARK   90  A    between atoms: _214  and  _217
REMARK   91  A    between atoms: _217  and  _218
REMARK   92  A    between atoms: _220  and  _222
REMARK   93  A    between atoms: _222  and  _223
REMARK   94  A    between atoms: _222  and  _225
REMARK   95  A    between atoms: _225  and  _226
REMARK   96  A    between atoms: _228  and  _230
REMARK   97  A    between atoms: _230  and  _231
REMARK   98  A    between atoms: _230  and  _233
REMARK   99  A    between atoms: _233  and  _234
REMARK  100  A    between atoms: _240  and  _242
REMARK  101  A    between atoms: _242  and  _243
REMARK  102  A    between atoms: _242  and  _245
REMARK  103  A    between atoms: _245  and  _246
REMARK  104  A    between atoms: _249  and  _251
REMARK  105  A    between atoms: _251  and  _252
REMARK  106  A    between atoms: _251  and  _254
REMARK  107  A    between atoms: _254  and  _255
REMARK  108  A    between atoms: _258  and  _260
REMARK  109  A    between atoms: _260  and  _261
REMARK  110  A    between atoms: _260  and  _263
REMARK  111  A    between atoms: _263  and  _264
REMARK  112  A    between atoms: _264  and  _265
REMARK  113  A    between atoms: _267  and  _269
REMARK  114  A    between atoms: _269  and  _270
REMARK  115  A    between atoms: _269  and  _272
REMARK  116  A    between atoms: _272  and  _273
REMARK  117  A    between atoms: _279  and  _281
REMARK  118  A    between atoms: _281  and  _282
REMARK  119  A    between atoms: _281  and  _284
REMARK  120  A    between atoms: _286  and  _288
REMARK  121  A    between atoms: _288  and  _289
REMARK  122  A    between atoms: _292  and  _294
REMARK  123  A    between atoms: _294  and  _295
REMARK  124  A    between atoms: _297  and  _299
REMARK  125  A    between atoms: _299  and  _300
REMARK  126  A    between atoms: _299  and  _302
REMARK  127  A    between atoms: _302  and  _303
REMARK  128  A    between atoms: _303  and  _304
REMARK  129  A    between atoms: _307  and  _309
REMARK  130  A    between atoms: _309  and  _310
REMARK  131  A    between atoms: _309  and  _312
REMARK  132  A    between atoms: _312  and  _313
REMARK  133  A    between atoms: _316  and  _318
REMARK  134  A    between atoms: _318  and  _319
REMARK  135  A    between atoms: _322  and  _324
REMARK  136  A    between atoms: _324  and  _325
REMARK  137  A    between atoms: _324  and  _327
REMARK  138  A    between atoms: _327  and  _328
REMARK  139  A    between atoms: _328  and  _451
REMARK  140  A    between atoms: _329  and  _331
REMARK  141  A    between atoms: _331  and  _332
REMARK  142  A    between atoms: _331  and  _334
REMARK  143  A    between atoms: _334  and  _335
REMARK  144  A    between atoms: _335  and  _336
REMARK  145  A    between atoms: _341  and  _343
REMARK  146  A    between atoms: _343  and  _344
REMARK  147  A    between atoms: _346  and  _348
REMARK  148  A    between atoms: _348  and  _349
REMARK  149  A    between atoms: _348  and  _351
REMARK  150  A    between atoms: _351  and  _352
REMARK  151  A    between atoms: _355  and  _357
REMARK  152  A    between atoms: _357  and  _358
REMARK  153  A    between atoms: _357  and  _360
REMARK  154  A    between atoms: _360  and  _361
REMARK  155  A    between atoms: _363  and  _365
REMARK  156  A    between atoms: _365  and  _366
REMARK  157  A    between atoms: _368  and  _370
REMARK  158  A    between atoms: _370  and  _371
REMARK  159  A    between atoms: _373  and  _375
REMARK  160  A    between atoms: _375  and  _376
REMARK  161  A    between atoms: _375  and  _378
REMARK  162  A    between atoms: _378  and  _379
REMARK  163  A    between atoms: _384  and  _386
REMARK  164  A    between atoms: _386  and  _387
REMARK  165  A    between atoms: _386  and  _389
REMARK  166  A    between atoms: _389  and  _390
REMARK  167  A    between atoms: _393  and  _395
REMARK  168  A    between atoms: _395  and  _396
REMARK  169  A    between atoms: _395  and  _398
REMARK  170  A    between atoms: _401  and  _403
REMARK  171  A    between atoms: _403  and  _404
REMARK  172  A    between atoms: _403  and  _406
REMARK  173  A    between atoms: _406  and  _407
REMARK  174  A    between atoms: _409  and  _411
REMARK  175  A    between atoms: _411  and  _412
REMARK  176  A    between atoms: _411  and  _414
REMARK  177  A    between atoms: _414  and  _415
REMARK  178  A    between atoms: _425  and  _427
REMARK  179  A    between atoms: _427  and  _428
REMARK  180  A    between atoms: _430  and  _432
REMARK  181  A    between atoms: _432  and  _433
REMARK  182  A    between atoms: _432  and  _435
REMARK  183  A    between atoms: _435  and  _436
REMARK  184  A    between atoms: _436  and  _437
REMARK  185  A    between atoms: _440  and  _442
REMARK  186  A    between atoms: _442  and  _443
REMARK  187  A    between atoms: _445  and  _447
REMARK  188  A    between atoms: _447  and  _448
REMARK  189  A    between atoms: _447  and  _450
REMARK  190  A    between atoms: _450  and  _451
REMARK  191  A    between atoms: _452  and  _454
REMARK  192  A    between atoms: _454  and  _455
REMARK  193  A    between atoms: _458  and  _460
REMARK  194  A    between atoms: _460  and  _461
REMARK  195  A    between atoms: _460  and  _463
REMARK  196  A    between atoms: _463  and  _464
REMARK  197  A    between atoms: _464  and  _465
REMARK  198  A    between atoms: _465  and  _466
REMARK  199  A    between atoms: _475  and  _477
REMARK  200  A    between atoms: _477  and  _478
REMARK  201  A    between atoms: _477  and  _480
REMARK  202  A    between atoms: _480  and  _481
REMARK  203  A    between atoms: _481  and  _482
REMARK  204  A    between atoms: _482  and  _483
REMARK  205  A    between atoms: _483  and  _484
REMARK  206  A    between atoms: _488  and  _490
REMARK  207  A    between atoms: _490  and  _491
REMARK  208  A    between atoms: _490  and  _493
REMARK  209  A    between atoms: _493  and  _494
REMARK  210  A    between atoms: _499  and  _500
REMARK  211  A    between atoms: _502  and  _504
REMARK  212  A    between atoms: _504  and  _505
REMARK  213  A    between atoms: _507  and  _509
REMARK  214  A    between atoms: _509  and  _510
REMARK  215  A    between atoms: _509  and  _512
REMARK  216  A    between atoms: _512  and  _513
REMARK  217  A    between atoms: _516  and  _518
REMARK  218  A    between atoms: _518  and  _519
REMARK  219  A    between atoms: _518  and  _521
REMARK  220  A    between atoms: _521  and  _522
REMARK  221  A    between atoms: _527  and  _528
REMARK  222  A    between atoms: _530  and  _532
REMARK  223  A    between atoms: _532  and  _533
REMARK  224  A    between atoms: _532  and  _535
REMARK  225  A    between atoms: _535  and  _536
REMARK                            x       y       z     vdW  Elec       q    Type
REMARK                         _______ _______ _______ _____ _____    ______ ____
ROOT
ATOM      1  O   HOH     1       3.907  13.023  23.658  0.00  0.00    +0.000 OA
ENDROOT
TORSDOF 0
REMARK  Name = ../refined-set-2016/2jkh/2jkh_pocket.pdb
REMARK  225 active torsions:
REMARK  status: ('A' for Active; 'I' for Inactive)
REMARK    1  A    between atoms: _1  and  _5
REMARK    2  A    between atoms: _5  and  _6
REMARK    3  A    between atoms: _5  and  _8
REMARK    4  A    between atoms: _8  and  _9
REMARK    5  A    between atoms: _12  and  _14
REMARK    6  A    between atoms: _14  and  _15
REMARK    7  A    between atoms: _14  and  _17
REMARK    8  A    between atoms: _20  and  _22
REMARK    9  A    between atoms: _22  and  _23
REMARK   10  A    between atoms: _22  and  _25
REMARK   11  A    between atoms: _25  and  _26
REMARK   12  A    between atoms: _32  and  _34
REMARK   13  A    between atoms: _34  and  _35
REMARK   14  A    between atoms: _34  and  _37
REMARK   15  A    between atoms: _37  and  _38
REMARK   16  A    between atoms: _43  and  _45
REMARK   17  A    between atoms: _45  and  _46
REMARK   18  A    between atoms: _45  and  _48
REMARK   19  A    between atoms: _48  and  _49
REMARK   20  A    between atoms: _49  and  _50
REMARK   21  A    between atoms: _55  and  _57
REMARK   22  A    between atoms: _57  and  _58
REMARK   23  A    between atoms: _57  and  _60
REMARK   24  A    between atoms: _60  and  _61
REMARK   25  A    between atoms: _67  and  _69
REMARK   26  A    between atoms: _69  and  _70
REMARK   27  A    between atoms: _69  and  _72
REMARK   28  A    between atoms: _72  and  _73
REMARK   29  A    between atoms: _76  and  _78
REMARK   30  A    between atoms: _78  and  _79
REMARK   31  A    between atoms: _78  and  _81
REMARK   32  A    between atoms: _81  and  _82
REMARK   33  A    between atoms: _82  and  _83
REMARK   34  A    between atoms: _83  and  _84
REMARK   35  A    between atoms: _84  and  _85
REMARK   36  A    between atoms: _89  and  _91
REMARK   37  A    between atoms: _91  and  _92
REMARK   38  A    between atoms: _91  and  _94
REMARK   39  A    between atoms: _94  and  _95
REMARK   40  A    between atoms: _95  and  _96
REMARK   41  A    between atoms: _99  and  _101
REMARK   42  A    between atoms: _101  and  _102
REMARK   43  A    between atoms: _101  and  _104
REMARK   44  A    between atoms: _104  and  _105
REMARK   45  A    between atoms: _108  and  _110
REMARK   46  A    between atoms: _110  and  _111
REMARK   47  A    between atoms: _110  and  _113
REMARK   48  A    between atoms: _113  and  _114
REMARK   49  A    between atoms: _119  and  _120
REMARK   50  A    between atoms: _122  and  _124
REMARK   51  A    between atoms: _124  and  _125
REMARK   52  A    between atoms: _124  and  _127
REMARK   53  A    between atoms: _127  and  _128
REMARK   54  A    between atoms: _131  and  _133
REMARK   55  A    between atoms: _133  and  _134
REMARK   56  A    between atoms: _133  and  _136
REMARK   57  A    between atoms: _136  and  _137
REMARK   58  A    between atoms: _140  and  _142
REMARK   59  A    between atoms: _142  and  _143
REMARK   60  A    between atoms: _142  and  _145
REMARK   61  A    between atoms: _148  and  _150
REMARK   62  A    between atoms: _150  and  _151
REMARK   63  A    between atoms: _150  and  _153
REMARK   64  A    between atoms: _153  and  _154
REMARK   65  A    between atoms: _154  and  _155
REMARK   66  A    between atoms: _155  and  _156
REMARK   67  A    between atoms: _165  and  _167
REMARK   68  A    between atoms: _167  and  _168
REMARK   69  A    between atoms: _167  and  _170
REMARK   70  A    between atoms: _170  and  _171
REMARK   71  A    between atoms: _176  and  _178
REMARK   72  A    between atoms: _178  and  _179
REMARK   73  A    between atoms: _178  and  _181
REMARK   74  A    between atoms: _181  and  _182
REMARK   75  A    between atoms: _182  and  _183
REMARK   76  A    between atoms: _186  and  _188
REMARK   77  A    between atoms: _188  and  _189
REMARK   78  A    between atoms: _188  and  _191
REMARK   79  A    between atoms: _191  and  _192
REMARK   80  A    between atoms: _192  and  _193
REMARK   81  A    between atoms: _193  and  _194
REMARK   82  A    between atoms: _194  and  _195
REMARK   83  A    between atoms: _199  and  _201
REMARK   84  A    between atoms: _201  and  _202
REMARK   85  A    between atoms: _204  and  _206
REMARK   86  A    between atoms: _206  and  _207
REMARK   87  A    between atoms: _206  and  _209
REMARK   88  A    between atoms: _212  and  _214
REMARK   89  A    between atoms: _214  and  _215
REMARK   90  A    between atoms: _214  and  _217
REMARK   91  A    between atoms: _217  and  _218
REMARK   92  A    between atoms: _220  and  _222
REMARK   93  A    between atoms: _222  and  _223
REMARK   94  A    between atoms: _222  and  _225
REMARK   95  A    between atoms: _225  and  _226
REMARK   96  A    between atoms: _228  and  _230
REMARK   97  A    between atoms: _230  and  _231
REMARK   98  A    between atoms: _230  and  _233
REMARK   99  A    between atoms: _233  and  _234
REMARK  100  A    between atoms: _240  and  _242
REMARK  101  A    between atoms: _242  and  _243
REMARK  102  A    between atoms: _242  and  _245
REMARK  103  A    between atoms: _245  and  _246
REMARK  104  A    between atoms: _249  and  _251
REMARK  105  A    between atoms: _251  and  _252
REMARK  106  A    between atoms: _251  and  _254
REMARK  107  A    between atoms: _254  and  _255
REMARK  108  A    between atoms: _258  and  _260
REMARK  109  A    between atoms: _260  and  _261
REMARK  110  A    between atoms: _260  and  _263
REMARK  111  A    between atoms: _263  and  _264
REMARK  112  A    between atoms: _264  and  _265
REMARK  113  A    between atoms: _267  and  _269
REMARK  114  A    between atoms: _269  and  _270
REMARK  115  A    between atoms: _269  and  _272
REMARK  116  A    between atoms: _272  and  _273
REMARK  117  A    between atoms: _279  and  _281
REMARK  118  A    between atoms: _281  and  _282
REMARK  119  A    between atoms: _281  and  _284
REMARK  120  A    between atoms: _286  and  _288
REMARK  121  A    between atoms: _288  and  _289
REMARK  122  A    between atoms: _292  and  _294
REMARK  123  A    between atoms: _294  and  _295
REMARK  124  A    between atoms: _297  and  _299
REMARK  125  A    between atoms: _299  and  _300
REMARK  126  A    between atoms: _299  and  _302
REMARK  127  A    between atoms: _302  and  _303
REMARK  128  A    between atoms: _303  and  _304
REMARK  129  A    between atoms: _307  and  _309
REMARK  130  A    between atoms: _309  and  _310
REMARK  131  A    between atoms: _309  and  _312
REMARK  132  A    between atoms: _312  and  _313
REMARK  133  A    between atoms: _316  and  _318
REMARK  134  A    between atoms: _318  and  _319
REMARK  135  A    between atoms: _322  and  _324
REMARK  136  A    between atoms: _324  and  _325
REMARK  137  A    between atoms: _324  and  _327
REMARK  138  A    between atoms: _327  and  _328
REMARK  139  A    between atoms: _328  and  _451
REMARK  140  A    between atoms: _329  and  _331
REMARK  141  A    between atoms: _331  and  _332
REMARK  142  A    between atoms: _331  and  _334
REMARK  143  A    between atoms: _334  and  _335
REMARK  144  A    between atoms: _335  and  _336
REMARK  145  A    between atoms: _341  and  _343
REMARK  146  A    between atoms: _343  and  _344
REMARK  147  A    between atoms: _346  and  _348
REMARK  148  A    between atoms: _348  and  _349
REMARK  149  A    between atoms: _348  and  _351
REMARK  150  A    between atoms: _351  and  _352
REMARK  151  A    between atoms: _355  and  _357
REMARK  152  A    between atoms: _357  and  _358
REMARK  153  A    between atoms: _357  and  _360
REMARK  154  A    between atoms: _360  and  _361
REMARK  155  A    between atoms: _363  and  _365
REMARK  156  A    between atoms: _365  and  _366
REMARK  157  A    between atoms: _368  and  _370
REMARK  158  A    between atoms: _370  and  _371
REMARK  159  A    between atoms: _373  and  _375
REMARK  160  A    between atoms: _375  and  _376
REMARK  161  A    between atoms: _375  and  _378
REMARK  162  A    between atoms: _378  and  _379
REMARK  163  A    between atoms: _384  and  _386
REMARK  164  A    between atoms: _386  and  _387
REMARK  165  A    between atoms: _386  and  _389
REMARK  166  A    between atoms: _389  and  _390
REMARK  167  A    between atoms: _393  and  _395
REMARK  168  A    between atoms: _395  and  _396
REMARK  169  A    between atoms: _395  and  _398
REMARK  170  A    between atoms: _401  and  _403
REMARK  171  A    between atoms: _403  and  _404
REMARK  172  A    between atoms: _403  and  _406
REMARK  173  A    between atoms: _406  and  _407
REMARK  174  A    between atoms: _409  and  _411
REMARK  175  A    between atoms: _411  and  _412
REMARK  176  A    between atoms: _411  and  _414
REMARK  177  A    between atoms: _414  and  _415
REMARK  178  A    between atoms: _425  and  _427
REMARK  179  A    between atoms: _427  and  _428
REMARK  180  A    between atoms: _430  and  _432
REMARK  181  A    between atoms: _432  and  _433
REMARK  182  A    between atoms: _432  and  _435
REMARK  183  A    between atoms: _435  and  _436
REMARK  184  A    between atoms: _436  and  _437
REMARK  185  A    between atoms: _440  and  _442
REMARK  186  A    between atoms: _442  and  _443
REMARK  187  A    between atoms: _445  and  _447
REMARK  188  A    between atoms: _447  and  _448
REMARK  189  A    between atoms: _447  and  _450
REMARK  190  A    between atoms: _450  and  _451
REMARK  191  A    between atoms: _452  and  _454
REMARK  192  A    between atoms: _454  and  _455
REMARK  193  A    between atoms: _458  and  _460
REMARK  194  A    between atoms: _460  and  _461
REMARK  195  A    between atoms: _460  and  _463
REMARK  196  A    between atoms: _463  and  _464
REMARK  197  A    between atoms: _464  and  _465
REMARK  198  A    between atoms: _465  and  _466
REMARK  199  A    between atoms: _475  and  _477
REMARK  200  A    between atoms: _477  and  _478
REMARK  201  A    between atoms: _477  and  _480
REMARK  202  A    between atoms: _480  and  _481
REMARK  203  A    between atoms: _481  and  _482
REMARK  204  A    between atoms: _482  and  _483
REMARK  205  A    between atoms: _483  and  _484
REMARK  206  A    between atoms: _488  and  _490
REMARK  207  A    between atoms: _490  and  _491
REMARK  208  A    between atoms: _490  and  _493
REMARK  209  A    between atoms: _493  and  _494
REMARK  210  A    between atoms: _499  and  _500
REMARK  211  A    between atoms: _502  and  _504
REMARK  212  A    between atoms: _504  and  _505
REMARK  213  A    between atoms: _507  and  _509
REMARK  214  A    between atoms: _509  and  _510
REMARK  215  A    between atoms: _509  and  _512
REMARK  216  A    between atoms: _512  and  _513
REMARK  217  A    between atoms: _516  and  _518
REMARK  218  A    between atoms: _518  and  _519
REMARK  219  A    between atoms: _518  and  _521
REMARK  220  A    between atoms: _521  and  _522
REMARK  221  A    between atoms: _527  and  _528
REMARK  222  A    between atoms: _530  and  _532
REMARK  223  A    between atoms: _532  and  _533
REMARK  224  A    between atoms: _532  and  _535
REMARK  225  A    between atoms: _535  and  _536
REMARK                            x       y       z     vdW  Elec       q    Type
REMARK                         _______ _______ _______ _____ _____    ______ ____
ROOT
ATOM      1  O   HOH     1      -0.437   9.927  21.978  0.00  0.00    +0.000 OA
ENDROOT
TORSDOF 0
REMARK  Name = ../refined-set-2016/2jkh/2jkh_pocket.pdb
REMARK  225 active torsions:
REMARK  status: ('A' for Active; 'I' for Inactive)
REMARK    1  A    between atoms: _1  and  _5
REMARK    2  A    between atoms: _5  and  _6
REMARK    3  A    between atoms: _5  and  _8
REMARK    4  A    between atoms: _8  and  _9
REMARK    5  A    between atoms: _12  and  _14
REMARK    6  A    between atoms: _14  and  _15
REMARK    7  A    between atoms: _14  and  _17
REMARK    8  A    between atoms: _20  and  _22
REMARK    9  A    between atoms: _22  and  _23
REMARK   10  A    between atoms: _22  and  _25
REMARK   11  A    between atoms: _25  and  _26
REMARK   12  A    between atoms: _32  and  _34
REMARK   13  A    between atoms: _34  and  _35
REMARK   14  A    between atoms: _34  and  _37
REMARK   15  A    between atoms: _37  and  _38
REMARK   16  A    between atoms: _43  and  _45
REMARK   17  A    between atoms: _45  and  _46
REMARK   18  A    between atoms: _45  and  _48
REMARK   19  A    between atoms: _48  and  _49
REMARK   20  A    between atoms: _49  and  _50
REMARK   21  A    between atoms: _55  and  _57
REMARK   22  A    between atoms: _57  and  _58
REMARK   23  A    between atoms: _57  and  _60
REMARK   24  A    between atoms: _60  and  _61
REMARK   25  A    between atoms: _67  and  _69
REMARK   26  A    between atoms: _69  and  _70
REMARK   27  A    between atoms: _69  and  _72
REMARK   28  A    between atoms: _72  and  _73
REMARK   29  A    between atoms: _76  and  _78
REMARK   30  A    between atoms: _78  and  _79
REMARK   31  A    between atoms: _78  and  _81
REMARK   32  A    between atoms: _81  and  _82
REMARK   33  A    between atoms: _82  and  _83
REMARK   34  A    between atoms: _83  and  _84
REMARK   35  A    between atoms: _84  and  _85
REMARK   36  A    between atoms: _89  and  _91
REMARK   37  A    between atoms: _91  and  _92
REMARK   38  A    between atoms: _91  and  _94
REMARK   39  A    between atoms: _94  and  _95
REMARK   40  A    between atoms: _95  and  _96
REMARK   41  A    between atoms: _99  and  _101
REMARK   42  A    between atoms: _101  and  _102
REMARK   43  A    between atoms: _101  and  _104
REMARK   44  A    between atoms: _104  and  _105
REMARK   45  A    between atoms: _108  and  _110
REMARK   46  A    between atoms: _110  and  _111
REMARK   47  A    between atoms: _110  and  _113
REMARK   48  A    between atoms: _113  and  _114
REMARK   49  A    between atoms: _119  and  _120
REMARK   50  A    between atoms: _122  and  _124
REMARK   51  A    between atoms: _124  and  _125
REMARK   52  A    between atoms: _124  and  _127
REMARK   53  A    between atoms: _127  and  _128
REMARK   54  A    between atoms: _131  and  _133
REMARK   55  A    between atoms: _133  and  _134
REMARK   56  A    between atoms: _133  and  _136
REMARK   57  A    between atoms: _136  and  _137
REMARK   58  A    between atoms: _140  and  _142
REMARK   59  A    between atoms: _142  and  _143
REMARK   60  A    between atoms: _142  and  _145
REMARK   61  A    between atoms: _148  and  _150
REMARK   62  A    between atoms: _150  and  _151
REMARK   63  A    between atoms: _150  and  _153
REMARK   64  A    between atoms: _153  and  _154
REMARK   65  A    between atoms: _154  and  _155
REMARK   66  A    between atoms: _155  and  _156
REMARK   67  A    between atoms: _165  and  _167
REMARK   68  A    between atoms: _167  and  _168
REMARK   69  A    between atoms: _167  and  _170
REMARK   70  A    between atoms: _170  and  _171
REMARK   71  A    between atoms: _176  and  _178
REMARK   72  A    between atoms: _178  and  _179
REMARK   73  A    between atoms: _178  and  _181
REMARK   74  A    between atoms: _181  and  _182
REMARK   75  A    between atoms: _182  and  _183
REMARK   76  A    between atoms: _186  and  _188
REMARK   77  A    between atoms: _188  and  _189
REMARK   78  A    between atoms: _188  and  _191
REMARK   79  A    between atoms: _191  and  _192
REMARK   80  A    between atoms: _192  and  _193
REMARK   81  A    between atoms: _193  and  _194
REMARK   82  A    between atoms: _194  and  _195
REMARK   83  A    between atoms: _199  and  _201
REMARK   84  A    between atoms: _201  and  _202
REMARK   85  A    between atoms: _204  and  _206
REMARK   86  A    between atoms: _206  and  _207
REMARK   87  A    between atoms: _206  and  _209
REMARK   88  A    between atoms: _212  and  _214
REMARK   89  A    between atoms: _214  and  _215
REMARK   90  A    between atoms: _214  and  _217
REMARK   91  A    between atoms: _217  and  _218
REMARK   92  A    between atoms: _220  and  _222
REMARK   93  A    between atoms: _222  and  _223
REMARK   94  A    between atoms: _222  and  _225
REMARK   95  A    between atoms: _225  and  _226
REMARK   96  A    between atoms: _228  and  _230
REMARK   97  A    between atoms: _230  and  _231
REMARK   98  A    between atoms: _230  and  _233
REMARK   99  A    between atoms: _233  and  _234
REMARK  100  A    between atoms: _240  and  _242
REMARK  101  A    between atoms: _242  and  _243
REMARK  102  A    between atoms: _242  and  _245
REMARK  103  A    between atoms: _245  and  _246
REMARK  104  A    between atoms: _249  and  _251
REMARK  105  A    between atoms: _251  and  _252
REMARK  106  A    between atoms: _251  and  _254
REMARK  107  A    between atoms: _254  and  _255
REMARK  108  A    between atoms: _258  and  _260
REMARK  109  A    between atoms: _260  and  _261
REMARK  110  A    between atoms: _260  and  _263
REMARK  111  A    between atoms: _263  and  _264
REMARK  112  A    between atoms: _264  and  _265
REMARK  113  A    between atoms: _267  and  _269
REMARK  114  A    between atoms: _269  and  _270
REMARK  115  A    between atoms: _269  and  _272
REMARK  116  A    between atoms: _272  and  _273
REMARK  117  A    between atoms: _279  and  _281
REMARK  118  A    between atoms: _281  and  _282
REMARK  119  A    between atoms: _281  and  _284
REMARK  120  A    between atoms: _286  and  _288
REMARK  121  A    between atoms: _288  and  _289
REMARK  122  A    between atoms: _292  and  _294
REMARK  123  A    between atoms: _294  and  _295
REMARK  124  A    between atoms: _297  and  _299
REMARK  125  A    between atoms: _299  and  _300
REMARK  126  A    between atoms: _299  and  _302
REMARK  127  A    between atoms: _302  and  _303
REMARK  128  A    between atoms: _303  and  _304
REMARK  129  A    between atoms: _307  and  _309
REMARK  130  A    between atoms: _309  and  _310
REMARK  131  A    between atoms: _309  and  _312
REMARK  132  A    between atoms: _312  and  _313
REMARK  133  A    between atoms: _316  and  _318
REMARK  134  A    between atoms: _318  and  _319
REMARK  135  A    between atoms: _322  and  _324
REMARK  136  A    between atoms: _324  and  _325
REMARK  137  A    between atoms: _324  and  _327
REMARK  138  A    between atoms: _327  and  _328
REMARK  139  A    between atoms: _328  and  _451
REMARK  140  A    between atoms: _329  and  _331
REMARK  141  A    between atoms: _331  and  _332
REMARK  142  A    between atoms: _331  and  _334
REMARK  143  A    between atoms: _334  and  _335
REMARK  144  A    between atoms: _335  and  _336
REMARK  145  A    between atoms: _341  and  _343
REMARK  146  A    between atoms: _343  and  _344
REMARK  147  A    between atoms: _346  and  _348
REMARK  148  A    between atoms: _348  and  _349
REMARK  149  A    between atoms: _348  and  _351
REMARK  150  A    between atoms: _351  and  _352
REMARK  151  A    between atoms: _355  and  _357
REMARK  152  A    between atoms: _357  and  _358
REMARK  153  A    between atoms: _357  and  _360
REMARK  154  A    between atoms: _360  and  _361
REMARK  155  A    between atoms: _363  and  _365
REMARK  156  A    between atoms: _365  and  _366
REMARK  157  A    between atoms: _368  and  _370
REMARK  158  A    between atoms: _370  and  _371
REMARK  159  A    between atoms: _373  and  _375
REMARK  160  A    between atoms: _375  and  _376
REMARK  161  A    between atoms: _375  and  _378
REMARK  162  A    between atoms: _378  and  _379
REMARK  163  A    between atoms: _384  and  _386
REMARK  164  A    between atoms: _386  and  _387
REMARK  165  A    between atoms: _386  and  _389
REMARK  166  A    between atoms: _389  and  _390
REMARK  167  A    between atoms: _393  and  _395
REMARK  168  A    between atoms: _395  and  _396
REMARK  169  A    between atoms: _395  and  _398
REMARK  170  A    between atoms: _401  and  _403
REMARK  171  A    between atoms: _403  and  _404
REMARK  172  A    between atoms: _403  and  _406
REMARK  173  A    between atoms: _406  and  _407
REMARK  174  A    between atoms: _409  and  _411
REMARK  175  A    between atoms: _411  and  _412
REMARK  176  A    between atoms: _411  and  _414
REMARK  177  A    between atoms: _414  and  _415
REMARK  178  A    between atoms: _425  and  _427
REMARK  179  A    between atoms: _427  and  _428
REMARK  180  A    between atoms: _430  and  _432
REMARK  181  A    between atoms: _432  and  _433
REMARK  182  A    between atoms: _432  and  _435
REMARK  183  A    between atoms: _435  and  _436
REMARK  184  A    between atoms: _436  and  _437
REMARK  185  A    between atoms: _440  and  _442
REMARK  186  A    between atoms: _442  and  _443
REMARK  187  A    between atoms: _445  and  _447
REMARK  188  A    between atoms: _447  and  _448
REMARK  189  A    between atoms: _447  and  _450
REMARK  190  A    between atoms: _450  and  _451
REMARK  191  A    between atoms: _452  and  _454
REMARK  192  A    between atoms: _454  and  _455
REMARK  193  A    between atoms: _458  and  _460
REMARK  194  A    between atoms: _460  and  _461
REMARK  195  A    between atoms: _460  and  _463
REMARK  196  A    between atoms: _463  and  _464
REMARK  197  A    between atoms: _464  and  _465
REMARK  198  A    between atoms: _465  and  _466
REMARK  199  A    between atoms: _475  and  _477
REMARK  200  A    between atoms: _477  and  _478
REMARK  201  A    between atoms: _477  and  _480
REMARK  202  A    between atoms: _480  and  _481
REMARK  203  A    between atoms: _481  and  _482
REMARK  204  A    between atoms: _482  and  _483
REMARK  205  A    between atoms: _483  and  _484
REMARK  206  A    between atoms: _488  and  _490
REMARK  207  A    between atoms: _490  and  _491
REMARK  208  A    between atoms: _490  and  _493
REMARK  209  A    between atoms: _493  and  _494
REMARK  210  A    between atoms: _499  and  _500
REMARK  211  A    between atoms: _502  and  _504
REMARK  212  A    between atoms: _504  and  _505
REMARK  213  A    between atoms: _507  and  _509
REMARK  214  A    between atoms: _509  and  _510
REMARK  215  A    between atoms: _509  and  _512
REMARK  216  A    between atoms: _512  and  _513
REMARK  217  A    between atoms: _516  and  _518
REMARK  218  A    between atoms: _518  and  _519
REMARK  219  A    between atoms: _518  and  _521
REMARK  220  A    between atoms: _521  and  _522
REMARK  221  A    between atoms: _527  and  _528
REMARK  222  A    between atoms: _530  and  _532
REMARK  223  A    between atoms: _532  and  _533
REMARK  224  A    between atoms: _532  and  _535
REMARK  225  A    between atoms: _535  and  _536
REMARK                            x       y       z     vdW  Elec       q    Type
REMARK                         _______ _______ _______ _____ _____    ______ ____
ROOT
ATOM      1  O   HOH     1      -6.753  11.706  24.118  0.00  0.00    +0.000 OA
ENDROOT
TORSDOF 0
REMARK  Name = ../refined-set-2016/2jkh/2jkh_pocket.pdb
REMARK  225 active torsions:
REMARK  status: ('A' for Active; 'I' for Inactive)
REMARK    1  A    between atoms: _1  and  _5
REMARK    2  A    between atoms: _5  and  _6
REMARK    3  A    between atoms: _5  and  _8
REMARK    4  A    between atoms: _8  and  _9
REMARK    5  A    between atoms: _12  and  _14
REMARK    6  A    between atoms: _14  and  _15
REMARK    7  A    between atoms: _14  and  _17
REMARK    8  A    between atoms: _20  and  _22
REMARK    9  A    between atoms: _22  and  _23
REMARK   10  A    between atoms: _22  and  _25
REMARK   11  A    between atoms: _25  and  _26
REMARK   12  A    between atoms: _32  and  _34
REMARK   13  A    between atoms: _34  and  _35
REMARK   14  A    between atoms: _34  and  _37
REMARK   15  A    between atoms: _37  and  _38
REMARK   16  A    between atoms: _43  and  _45
REMARK   17  A    between atoms: _45  and  _46
REMARK   18  A    between atoms: _45  and  _48
REMARK   19  A    between atoms: _48  and  _49
REMARK   20  A    between atoms: _49  and  _50
REMARK   21  A    between atoms: _55  and  _57
REMARK   22  A    between atoms: _57  and  _58
REMARK   23  A    between atoms: _57  and  _60
REMARK   24  A    between atoms: _60  and  _61
REMARK   25  A    between atoms: _67  and  _69
REMARK   26  A    between atoms: _69  and  _70
REMARK   27  A    between atoms: _69  and  _72
REMARK   28  A    between atoms: _72  and  _73
REMARK   29  A    between atoms: _76  and  _78
REMARK   30  A    between atoms: _78  and  _79
REMARK   31  A    between atoms: _78  and  _81
REMARK   32  A    between atoms: _81  and  _82
REMARK   33  A    between atoms: _82  and  _83
REMARK   34  A    between atoms: _83  and  _84
REMARK   35  A    between atoms: _84  and  _85
REMARK   36  A    between atoms: _89  and  _91
REMARK   37  A    between atoms: _91  and  _92
REMARK   38  A    between atoms: _91  and  _94
REMARK   39  A    between atoms: _94  and  _95
REMARK   40  A    between atoms: _95  and  _96
REMARK   41  A    between atoms: _99  and  _101
REMARK   42  A    between atoms: _101  and  _102
REMARK   43  A    between atoms: _101  and  _104
REMARK   44  A    between atoms: _104  and  _105
REMARK   45  A    between atoms: _108  and  _110
REMARK   46  A    between atoms: _110  and  _111
REMARK   47  A    between atoms: _110  and  _113
REMARK   48  A    between atoms: _113  and  _114
REMARK   49  A    between atoms: _119  and  _120
REMARK   50  A    between atoms: _122  and  _124
REMARK   51  A    between atoms: _124  and  _125
REMARK   52  A    between atoms: _124  and  _127
REMARK   53  A    between atoms: _127  and  _128
REMARK   54  A    between atoms: _131  and  _133
REMARK   55  A    between atoms: _133  and  _134
REMARK   56  A    between atoms: _133  and  _136
REMARK   57  A    between atoms: _136  and  _137
REMARK   58  A    between atoms: _140  and  _142
REMARK   59  A    between atoms: _142  and  _143
REMARK   60  A    between atoms: _142  and  _145
REMARK   61  A    between atoms: _148  and  _150
REMARK   62  A    between atoms: _150  and  _151
REMARK   63  A    between atoms: _150  and  _153
REMARK   64  A    between atoms: _153  and  _154
REMARK   65  A    between atoms: _154  and  _155
REMARK   66  A    between atoms: _155  and  _156
REMARK   67  A    between atoms: _165  and  _167
REMARK   68  A    between atoms: _167  and  _168
REMARK   69  A    between atoms: _167  and  _170
REMARK   70  A    between atoms: _170  and  _171
REMARK   71  A    between atoms: _176  and  _178
REMARK   72  A    between atoms: _178  and  _179
REMARK   73  A    between atoms: _178  and  _181
REMARK   74  A    between atoms: _181  and  _182
REMARK   75  A    between atoms: _182  and  _183
REMARK   76  A    between atoms: _186  and  _188
REMARK   77  A    between atoms: _188  and  _189
REMARK   78  A    between atoms: _188  and  _191
REMARK   79  A    between atoms: _191  and  _192
REMARK   80  A    between atoms: _192  and  _193
REMARK   81  A    between atoms: _193  and  _194
REMARK   82  A    between atoms: _194  and  _195
REMARK   83  A    between atoms: _199  and  _201
REMARK   84  A    between atoms: _201  and  _202
REMARK   85  A    between atoms: _204  and  _206
REMARK   86  A    between atoms: _206  and  _207
REMARK   87  A    between atoms: _206  and  _209
REMARK   88  A    between atoms: _212  and  _214
REMARK   89  A    between atoms: _214  and  _215
REMARK   90  A    between atoms: _214  and  _217
REMARK   91  A    between atoms: _217  and  _218
REMARK   92  A    between atoms: _220  and  _222
REMARK   93  A    between atoms: _222  and  _223
REMARK   94  A    between atoms: _222  and  _225
REMARK   95  A    between atoms: _225  and  _226
REMARK   96  A    between atoms: _228  and  _230
REMARK   97  A    between atoms: _230  and  _231
REMARK   98  A    between atoms: _230  and  _233
REMARK   99  A    between atoms: _233  and  _234
REMARK  100  A    between atoms: _240  and  _242
REMARK  101  A    between atoms: _242  and  _243
REMARK  102  A    between atoms: _242  and  _245
REMARK  103  A    between atoms: _245  and  _246
REMARK  104  A    between atoms: _249  and  _251
REMARK  105  A    between atoms: _251  and  _252
REMARK  106  A    between atoms: _251  and  _254
REMARK  107  A    between atoms: _254  and  _255
REMARK  108  A    between atoms: _258  and  _260
REMARK  109  A    between atoms: _260  and  _261
REMARK  110  A    between atoms: _260  and  _263
REMARK  111  A    between atoms: _263  and  _264
REMARK  112  A    between atoms: _264  and  _265
REMARK  113  A    between atoms: _267  and  _269
REMARK  114  A    between atoms: _269  and  _270
REMARK  115  A    between atoms: _269  and  _272
REMARK  116  A    between atoms: _272  and  _273
REMARK  117  A    between atoms: _279  and  _281
REMARK  118  A    between atoms: _281  and  _282
REMARK  119  A    between atoms: _281  and  _284
REMARK  120  A    between atoms: _286  and  _288
REMARK  121  A    between atoms: _288  and  _289
REMARK  122  A    between atoms: _292  and  _294
REMARK  123  A    between atoms: _294  and  _295
REMARK  124  A    between atoms: _297  and  _299
REMARK  125  A    between atoms: _299  and  _300
REMARK  126  A    between atoms: _299  and  _302
REMARK  127  A    between atoms: _302  and  _303
REMARK  128  A    between atoms: _303  and  _304
REMARK  129  A    between atoms: _307  and  _309
REMARK  130  A    between atoms: _309  and  _310
REMARK  131  A    between atoms: _309  and  _312
REMARK  132  A    between atoms: _312  and  _313
REMARK  133  A    between atoms: _316  and  _318
REMARK  134  A    between atoms: _318  and  _319
REMARK  135  A    between atoms: _322  and  _324
REMARK  136  A    between atoms: _324  and  _325
REMARK  137  A    between atoms: _324  and  _327
REMARK  138  A    between atoms: _327  and  _328
REMARK  139  A    between atoms: _328  and  _451
REMARK  140  A    between atoms: _329  and  _331
REMARK  141  A    between atoms: _331  and  _332
REMARK  142  A    between atoms: _331  and  _334
REMARK  143  A    between atoms: _334  and  _335
REMARK  144  A    between atoms: _335  and  _336
REMARK  145  A    between atoms: _341  and  _343
REMARK  146  A    between atoms: _343  and  _344
REMARK  147  A    between atoms: _346  and  _348
REMARK  148  A    between atoms: _348  and  _349
REMARK  149  A    between atoms: _348  and  _351
REMARK  150  A    between atoms: _351  and  _352
REMARK  151  A    between atoms: _355  and  _357
REMARK  152  A    between atoms: _357  and  _358
REMARK  153  A    between atoms: _357  and  _360
REMARK  154  A    between atoms: _360  and  _361
REMARK  155  A    between atoms: _363  and  _365
REMARK  156  A    between atoms: _365  and  _366
REMARK  157  A    between atoms: _368  and  _370
REMARK  158  A    between atoms: _370  and  _371
REMARK  159  A    between atoms: _373  and  _375
REMARK  160  A    between atoms: _375  and  _376
REMARK  161  A    between atoms: _375  and  _378
REMARK  162  A    between atoms: _378  and  _379
REMARK  163  A    between atoms: _384  and  _386
REMARK  164  A    between atoms: _386  and  _387
REMARK  165  A    between atoms: _386  and  _389
REMARK  166  A    between atoms: _389  and  _390
REMARK  167  A    between atoms: _393  and  _395
REMARK  168  A    between atoms: _395  and  _396
REMARK  169  A    between atoms: _395  and  _398
REMARK  170  A    between atoms: _401  and  _403
REMARK  171  A    between atoms: _403  and  _404
REMARK  172  A    between atoms: _403  and  _406
REMARK  173  A    between atoms: _406  and  _407
REMARK  174  A    between atoms: _409  and  _411
REMARK  175  A    between atoms: _411  and  _412
REMARK  176  A    between atoms: _411  and  _414
REMARK  177  A    between atoms: _414  and  _415
REMARK  178  A    between atoms: _425  and  _427
REMARK  179  A    between atoms: _427  and  _428
REMARK  180  A    between atoms: _430  and  _432
REMARK  181  A    between atoms: _432  and  _433
REMARK  182  A    between atoms: _432  and  _435
REMARK  183  A    between atoms: _435  and  _436
REMARK  184  A    between atoms: _436  and  _437
REMARK  185  A    between atoms: _440  and  _442
REMARK  186  A    between atoms: _442  and  _443
REMARK  187  A    between atoms: _445  and  _447
REMARK  188  A    between atoms: _447  and  _448
REMARK  189  A    between atoms: _447  and  _450
REMARK  190  A    between atoms: _450  and  _451
REMARK  191  A    between atoms: _452  and  _454
REMARK  192  A    between atoms: _454  and  _455
REMARK  193  A    between atoms: _458  and  _460
REMARK  194  A    between atoms: _460  and  _461
REMARK  195  A    between atoms: _460  and  _463
REMARK  196  A    between atoms: _463  and  _464
REMARK  197  A    between atoms: _464  and  _465
REMARK  198  A    between atoms: _465  and  _466
REMARK  199  A    between atoms: _475  and  _477
REMARK  200  A    between atoms: _477  and  _478
REMARK  201  A    between atoms: _477  and  _480
REMARK  202  A    between atoms: _480  and  _481
REMARK  203  A    between atoms: _481  and  _482
REMARK  204  A    between atoms: _482  and  _483
REMARK  205  A    between atoms: _483  and  _484
REMARK  206  A    between atoms: _488  and  _490
REMARK  207  A    between atoms: _490  and  _491
REMARK  208  A    between atoms: _490  and  _493
REMARK  209  A    between atoms: _493  and  _494
REMARK  210  A    between atoms: _499  and  _500
REMARK  211  A    between atoms: _502  and  _504
REMARK  212  A    between atoms: _504  and  _505
REMARK  213  A    between atoms: _507  and  _509
REMARK  214  A    between atoms: _509  and  _510
REMARK  215  A    between atoms: _509  and  _512
REMARK  216  A    between atoms: _512  and  _513
REMARK  217  A    between atoms: _516  and  _518
REMARK  218  A    between atoms: _518  and  _519
REMARK  219  A    between atoms: _518  and  _521
REMARK  220  A    between atoms: _521  and  _522
REMARK  221  A    between atoms: _527  and  _528
REMARK  222  A    between atoms: _530  and  _532
REMARK  223  A    between atoms: _532  and  _533
REMARK  224  A    between atoms: _532  and  _535
REMARK  225  A    between atoms: _535  and  _536
REMARK                            x       y       z     vdW  Elec       q    Type
REMARK                         _______ _______ _______ _____ _____    ______ ____
ROOT
ATOM      1  O   HOH     1      -7.826   8.643  30.071  0.00  0.00    +0.000 OA
ENDROOT
TORSDOF 0
REMARK  Name = ../refined-set-2016/2jkh/2jkh_pocket.pdb
REMARK  225 active torsions:
REMARK  status: ('A' for Active; 'I' for Inactive)
REMARK    1  A    between atoms: _1  and  _5
REMARK    2  A    between atoms: _5  and  _6
REMARK    3  A    between atoms: _5  and  _8
REMARK    4  A    between atoms: _8  and  _9
REMARK    5  A    between atoms: _12  and  _14
REMARK    6  A    between atoms: _14  and  _15
REMARK    7  A    between atoms: _14  and  _17
REMARK    8  A    between atoms: _20  and  _22
REMARK    9  A    between atoms: _22  and  _23
REMARK   10  A    between atoms: _22  and  _25
REMARK   11  A    between atoms: _25  and  _26
REMARK   12  A    between atoms: _32  and  _34
REMARK   13  A    between atoms: _34  and  _35
REMARK   14  A    between atoms: _34  and  _37
REMARK   15  A    between atoms: _37  and  _38
REMARK   16  A    between atoms: _43  and  _45
REMARK   17  A    between atoms: _45  and  _46
REMARK   18  A    between atoms: _45  and  _48
REMARK   19  A    between atoms: _48  and  _49
REMARK   20  A    between atoms: _49  and  _50
REMARK   21  A    between atoms: _55  and  _57
REMARK   22  A    between atoms: _57  and  _58
REMARK   23  A    between atoms: _57  and  _60
REMARK   24  A    between atoms: _60  and  _61
REMARK   25  A    between atoms: _67  and  _69
REMARK   26  A    between atoms: _69  and  _70
REMARK   27  A    between atoms: _69  and  _72
REMARK   28  A    between atoms: _72  and  _73
REMARK   29  A    between atoms: _76  and  _78
REMARK   30  A    between atoms: _78  and  _79
REMARK   31  A    between atoms: _78  and  _81
REMARK   32  A    between atoms: _81  and  _82
REMARK   33  A    between atoms: _82  and  _83
REMARK   34  A    between atoms: _83  and  _84
REMARK   35  A    between atoms: _84  and  _85
REMARK   36  A    between atoms: _89  and  _91
REMARK   37  A    between atoms: _91  and  _92
REMARK   38  A    between atoms: _91  and  _94
REMARK   39  A    between atoms: _94  and  _95
REMARK   40  A    between atoms: _95  and  _96
REMARK   41  A    between atoms: _99  and  _101
REMARK   42  A    between atoms: _101  and  _102
REMARK   43  A    between atoms: _101  and  _104
REMARK   44  A    between atoms: _104  and  _105
REMARK   45  A    between atoms: _108  and  _110
REMARK   46  A    between atoms: _110  and  _111
REMARK   47  A    between atoms: _110  and  _113
REMARK   48  A    between atoms: _113  and  _114
REMARK   49  A    between atoms: _119  and  _120
REMARK   50  A    between atoms: _122  and  _124
REMARK   51  A    between atoms: _124  and  _125
REMARK   52  A    between atoms: _124  and  _127
REMARK   53  A    between atoms: _127  and  _128
REMARK   54  A    between atoms: _131  and  _133
REMARK   55  A    between atoms: _133  and  _134
REMARK   56  A    between atoms: _133  and  _136
REMARK   57  A    between atoms: _136  and  _137
REMARK   58  A    between atoms: _140  and  _142
REMARK   59  A    between atoms: _142  and  _143
REMARK   60  A    between atoms: _142  and  _145
REMARK   61  A    between atoms: _148  and  _150
REMARK   62  A    between atoms: _150  and  _151
REMARK   63  A    between atoms: _150  and  _153
REMARK   64  A    between atoms: _153  and  _154
REMARK   65  A    between atoms: _154  and  _155
REMARK   66  A    between atoms: _155  and  _156
REMARK   67  A    between atoms: _165  and  _167
REMARK   68  A    between atoms: _167  and  _168
REMARK   69  A    between atoms: _167  and  _170
REMARK   70  A    between atoms: _170  and  _171
REMARK   71  A    between atoms: _176  and  _178
REMARK   72  A    between atoms: _178  and  _179
REMARK   73  A    between atoms: _178  and  _181
REMARK   74  A    between atoms: _181  and  _182
REMARK   75  A    between atoms: _182  and  _183
REMARK   76  A    between atoms: _186  and  _188
REMARK   77  A    between atoms: _188  and  _189
REMARK   78  A    between atoms: _188  and  _191
REMARK   79  A    between atoms: _191  and  _192
REMARK   80  A    between atoms: _192  and  _193
REMARK   81  A    between atoms: _193  and  _194
REMARK   82  A    between atoms: _194  and  _195
REMARK   83  A    between atoms: _199  and  _201
REMARK   84  A    between atoms: _201  and  _202
REMARK   85  A    between atoms: _204  and  _206
REMARK   86  A    between atoms: _206  and  _207
REMARK   87  A    between atoms: _206  and  _209
REMARK   88  A    between atoms: _212  and  _214
REMARK   89  A    between atoms: _214  and  _215
REMARK   90  A    between atoms: _214  and  _217
REMARK   91  A    between atoms: _217  and  _218
REMARK   92  A    between atoms: _220  and  _222
REMARK   93  A    between atoms: _222  and  _223
REMARK   94  A    between atoms: _222  and  _225
REMARK   95  A    between atoms: _225  and  _226
REMARK   96  A    between atoms: _228  and  _230
REMARK   97  A    between atoms: _230  and  _231
REMARK   98  A    between atoms: _230  and  _233
REMARK   99  A    between atoms: _233  and  _234
REMARK  100  A    between atoms: _240  and  _242
REMARK  101  A    between atoms: _242  and  _243
REMARK  102  A    between atoms: _242  and  _245
REMARK  103  A    between atoms: _245  and  _246
REMARK  104  A    between atoms: _249  and  _251
REMARK  105  A    between atoms: _251  and  _252
REMARK  106  A    between atoms: _251  and  _254
REMARK  107  A    between atoms: _254  and  _255
REMARK  108  A    between atoms: _258  and  _260
REMARK  109  A    between atoms: _260  and  _261
REMARK  110  A    between atoms: _260  and  _263
REMARK  111  A    between atoms: _263  and  _264
REMARK  112  A    between atoms: _264  and  _265
REMARK  113  A    between atoms: _267  and  _269
REMARK  114  A    between atoms: _269  and  _270
REMARK  115  A    between atoms: _269  and  _272
REMARK  116  A    between atoms: _272  and  _273
REMARK  117  A    between atoms: _279  and  _281
REMARK  118  A    between atoms: _281  and  _282
REMARK  119  A    between atoms: _281  and  _284
REMARK  120  A    between atoms: _286  and  _288
REMARK  121  A    between atoms: _288  and  _289
REMARK  122  A    between atoms: _292  and  _294
REMARK  123  A    between atoms: _294  and  _295
REMARK  124  A    between atoms: _297  and  _299
REMARK  125  A    between atoms: _299  and  _300
REMARK  126  A    between atoms: _299  and  _302
REMARK  127  A    between atoms: _302  and  _303
REMARK  128  A    between atoms: _303  and  _304
REMARK  129  A    between atoms: _307  and  _309
REMARK  130  A    between atoms: _309  and  _310
REMARK  131  A    between atoms: _309  and  _312
REMARK  132  A    between atoms: _312  and  _313
REMARK  133  A    between atoms: _316  and  _318
REMARK  134  A    between atoms: _318  and  _319
REMARK  135  A    between atoms: _322  and  _324
REMARK  136  A    between atoms: _324  and  _325
REMARK  137  A    between atoms: _324  and  _327
REMARK  138  A    between atoms: _327  and  _328
REMARK  139  A    between atoms: _328  and  _451
REMARK  140  A    between atoms: _329  and  _331
REMARK  141  A    between atoms: _331  and  _332
REMARK  142  A    between atoms: _331  and  _334
REMARK  143  A    between atoms: _334  and  _335
REMARK  144  A    between atoms: _335  and  _336
REMARK  145  A    between atoms: _341  and  _343
REMARK  146  A    between atoms: _343  and  _344
REMARK  147  A    between atoms: _346  and  _348
REMARK  148  A    between atoms: _348  and  _349
REMARK  149  A    between atoms: _348  and  _351
REMARK  150  A    between atoms: _351  and  _352
REMARK  151  A    between atoms: _355  and  _357
REMARK  152  A    between atoms: _357  and  _358
REMARK  153  A    between atoms: _357  and  _360
REMARK  154  A    between atoms: _360  and  _361
REMARK  155  A    between atoms: _363  and  _365
REMARK  156  A    between atoms: _365  and  _366
REMARK  157  A    between atoms: _368  and  _370
REMARK  158  A    between atoms: _370  and  _371
REMARK  159  A    between atoms: _373  and  _375
REMARK  160  A    between atoms: _375  and  _376
REMARK  161  A    between atoms: _375  and  _378
REMARK  162  A    between atoms: _378  and  _379
REMARK  163  A    between atoms: _384  and  _386
REMARK  164  A    between atoms: _386  and  _387
REMARK  165  A    between atoms: _386  and  _389
REMARK  166  A    between atoms: _389  and  _390
REMARK  167  A    between atoms: _393  and  _395
REMARK  168  A    between atoms: _395  and  _396
REMARK  169  A    between atoms: _395  and  _398
REMARK  170  A    between atoms: _401  and  _403
REMARK  171  A    between atoms: _403  and  _404
REMARK  172  A    between atoms: _403  and  _406
REMARK  173  A    between atoms: _406  and  _407
REMARK  174  A    between atoms: _409  and  _411
REMARK  175  A    between atoms: _411  and  _412
REMARK  176  A    between atoms: _411  and  _414
REMARK  177  A    between atoms: _414  and  _415
REMARK  178  A    between atoms: _425  and  _427
REMARK  179  A    between atoms: _427  and  _428
REMARK  180  A    between atoms: _430  and  _432
REMARK  181  A    between atoms: _432  and  _433
REMARK  182  A    between atoms: _432  and  _435
REMARK  183  A    between atoms: _435  and  _436
REMARK  184  A    between atoms: _436  and  _437
REMARK  185  A    between atoms: _440  and  _442
REMARK  186  A    between atoms: _442  and  _443
REMARK  187  A    between atoms: _445  and  _447
REMARK  188  A    between atoms: _447  and  _448
REMARK  189  A    between atoms: _447  and  _450
REMARK  190  A    between atoms: _450  and  _451
REMARK  191  A    between atoms: _452  and  _454
REMARK  192  A    between atoms: _454  and  _455
REMARK  193  A    between atoms: _458  and  _460
REMARK  194  A    between atoms: _460  and  _461
REMARK  195  A    between atoms: _460  and  _463
REMARK  196  A    between atoms: _463  and  _464
REMARK  197  A    between atoms: _464  and  _465
REMARK  198  A    between atoms: _465  and  _466
REMARK  199  A    between atoms: _475  and  _477
REMARK  200  A    between atoms: _477  and  _478
REMARK  201  A    between atoms: _477  and  _480
REMARK  202  A    between atoms: _480  and  _481
REMARK  203  A    between atoms: _481  and  _482
REMARK  204  A    between atoms: _482  and  _483
REMARK  205  A    between atoms: _483  and  _484
REMARK  206  A    between atoms: _488  and  _490
REMARK  207  A    between atoms: _490  and  _491
REMARK  208  A    between atoms: _490  and  _493
REMARK  209  A    between atoms: _493  and  _494
REMARK  210  A    between atoms: _499  and  _500
REMARK  211  A    between atoms: _502  and  _504
REMARK  212  A    between atoms: _504  and  _505
REMARK  213  A    between atoms: _507  and  _509
REMARK  214  A    between atoms: _509  and  _510
REMARK  215  A    between atoms: _509  and  _512
REMARK  216  A    between atoms: _512  and  _513
REMARK  217  A    between atoms: _516  and  _518
REMARK  218  A    between atoms: _518  and  _519
REMARK  219  A    between atoms: _518  and  _521
REMARK  220  A    between atoms: _521  and  _522
REMARK  221  A    between atoms: _527  and  _528
REMARK  222  A    between atoms: _530  and  _532
REMARK  223  A    between atoms: _532  and  _533
REMARK  224  A    between atoms: _532  and  _535
REMARK  225  A    between atoms: _535  and  _536
REMARK                            x       y       z     vdW  Elec       q    Type
REMARK                         _______ _______ _______ _____ _____    ______ ____
ROOT
ATOM      1  O   HOH     1      -9.170   3.671  25.142  0.00  0.00    +0.000 OA
ENDROOT
TORSDOF 0
REMARK  Name = ../refined-set-2016/2jkh/2jkh_pocket.pdb
REMARK  225 active torsions:
REMARK  status: ('A' for Active; 'I' for Inactive)
REMARK    1  A    between atoms: _1  and  _5
REMARK    2  A    between atoms: _5  and  _6
REMARK    3  A    between atoms: _5  and  _8
REMARK    4  A    between atoms: _8  and  _9
REMARK    5  A    between atoms: _12  and  _14
REMARK    6  A    between atoms: _14  and  _15
REMARK    7  A    between atoms: _14  and  _17
REMARK    8  A    between atoms: _20  and  _22
REMARK    9  A    between atoms: _22  and  _23
REMARK   10  A    between atoms: _22  and  _25
REMARK   11  A    between atoms: _25  and  _26
REMARK   12  A    between atoms: _32  and  _34
REMARK   13  A    between atoms: _34  and  _35
REMARK   14  A    between atoms: _34  and  _37
REMARK   15  A    between atoms: _37  and  _38
REMARK   16  A    between atoms: _43  and  _45
REMARK   17  A    between atoms: _45  and  _46
REMARK   18  A    between atoms: _45  and  _48
REMARK   19  A    between atoms: _48  and  _49
REMARK   20  A    between atoms: _49  and  _50
REMARK   21  A    between atoms: _55  and  _57
REMARK   22  A    between atoms: _57  and  _58
REMARK   23  A    between atoms: _57  and  _60
REMARK   24  A    between atoms: _60  and  _61
REMARK   25  A    between atoms: _67  and  _69
REMARK   26  A    between atoms: _69  and  _70
REMARK   27  A    between atoms: _69  and  _72
REMARK   28  A    between atoms: _72  and  _73
REMARK   29  A    between atoms: _76  and  _78
REMARK   30  A    between atoms: _78  and  _79
REMARK   31  A    between atoms: _78  and  _81
REMARK   32  A    between atoms: _81  and  _82
REMARK   33  A    between atoms: _82  and  _83
REMARK   34  A    between atoms: _83  and  _84
REMARK   35  A    between atoms: _84  and  _85
REMARK   36  A    between atoms: _89  and  _91
REMARK   37  A    between atoms: _91  and  _92
REMARK   38  A    between atoms: _91  and  _94
REMARK   39  A    between atoms: _94  and  _95
REMARK   40  A    between atoms: _95  and  _96
REMARK   41  A    between atoms: _99  and  _101
REMARK   42  A    between atoms: _101  and  _102
REMARK   43  A    between atoms: _101  and  _104
REMARK   44  A    between atoms: _104  and  _105
REMARK   45  A    between atoms: _108  and  _110
REMARK   46  A    between atoms: _110  and  _111
REMARK   47  A    between atoms: _110  and  _113
REMARK   48  A    between atoms: _113  and  _114
REMARK   49  A    between atoms: _119  and  _120
REMARK   50  A    between atoms: _122  and  _124
REMARK   51  A    between atoms: _124  and  _125
REMARK   52  A    between atoms: _124  and  _127
REMARK   53  A    between atoms: _127  and  _128
REMARK   54  A    between atoms: _131  and  _133
REMARK   55  A    between atoms: _133  and  _134
REMARK   56  A    between atoms: _133  and  _136
REMARK   57  A    between atoms: _136  and  _137
REMARK   58  A    between atoms: _140  and  _142
REMARK   59  A    between atoms: _142  and  _143
REMARK   60  A    between atoms: _142  and  _145
REMARK   61  A    between atoms: _148  and  _150
REMARK   62  A    between atoms: _150  and  _151
REMARK   63  A    between atoms: _150  and  _153
REMARK   64  A    between atoms: _153  and  _154
REMARK   65  A    between atoms: _154  and  _155
REMARK   66  A    between atoms: _155  and  _156
REMARK   67  A    between atoms: _165  and  _167
REMARK   68  A    between atoms: _167  and  _168
REMARK   69  A    between atoms: _167  and  _170
REMARK   70  A    between atoms: _170  and  _171
REMARK   71  A    between atoms: _176  and  _178
REMARK   72  A    between atoms: _178  and  _179
REMARK   73  A    between atoms: _178  and  _181
REMARK   74  A    between atoms: _181  and  _182
REMARK   75  A    between atoms: _182  and  _183
REMARK   76  A    between atoms: _186  and  _188
REMARK   77  A    between atoms: _188  and  _189
REMARK   78  A    between atoms: _188  and  _191
REMARK   79  A    between atoms: _191  and  _192
REMARK   80  A    between atoms: _192  and  _193
REMARK   81  A    between atoms: _193  and  _194
REMARK   82  A    between atoms: _194  and  _195
REMARK   83  A    between atoms: _199  and  _201
REMARK   84  A    between atoms: _201  and  _202
REMARK   85  A    between atoms: _204  and  _206
REMARK   86  A    between atoms: _206  and  _207
REMARK   87  A    between atoms: _206  and  _209
REMARK   88  A    between atoms: _212  and  _214
REMARK   89  A    between atoms: _214  and  _215
REMARK   90  A    between atoms: _214  and  _217
REMARK   91  A    between atoms: _217  and  _218
REMARK   92  A    between atoms: _220  and  _222
REMARK   93  A    between atoms: _222  and  _223
REMARK   94  A    between atoms: _222  and  _225
REMARK   95  A    between atoms: _225  and  _226
REMARK   96  A    between atoms: _228  and  _230
REMARK   97  A    between atoms: _230  and  _231
REMARK   98  A    between atoms: _230  and  _233
REMARK   99  A    between atoms: _233  and  _234
REMARK  100  A    between atoms: _240  and  _242
REMARK  101  A    between atoms: _242  and  _243
REMARK  102  A    between atoms: _242  and  _245
REMARK  103  A    between atoms: _245  and  _246
REMARK  104  A    between atoms: _249  and  _251
REMARK  105  A    between atoms: _251  and  _252
REMARK  106  A    between atoms: _251  and  _254
REMARK  107  A    between atoms: _254  and  _255
REMARK  108  A    between atoms: _258  and  _260
REMARK  109  A    between atoms: _260  and  _261
REMARK  110  A    between atoms: _260  and  _263
REMARK  111  A    between atoms: _263  and  _264
REMARK  112  A    between atoms: _264  and  _265
REMARK  113  A    between atoms: _267  and  _269
REMARK  114  A    between atoms: _269  and  _270
REMARK  115  A    between atoms: _269  and  _272
REMARK  116  A    between atoms: _272  and  _273
REMARK  117  A    between atoms: _279  and  _281
REMARK  118  A    between atoms: _281  and  _282
REMARK  119  A    between atoms: _281  and  _284
REMARK  120  A    between atoms: _286  and  _288
REMARK  121  A    between atoms: _288  and  _289
REMARK  122  A    between atoms: _292  and  _294
REMARK  123  A    between atoms: _294  and  _295
REMARK  124  A    between atoms: _297  and  _299
REMARK  125  A    between atoms: _299  and  _300
REMARK  126  A    between atoms: _299  and  _302
REMARK  127  A    between atoms: _302  and  _303
REMARK  128  A    between atoms: _303  and  _304
REMARK  129  A    between atoms: _307  and  _309
REMARK  130  A    between atoms: _309  and  _310
REMARK  131  A    between atoms: _309  and  _312
REMARK  132  A    between atoms: _312  and  _313
REMARK  133  A    between atoms: _316  and  _318
REMARK  134  A    between atoms: _318  and  _319
REMARK  135  A    between atoms: _322  and  _324
REMARK  136  A    between atoms: _324  and  _325
REMARK  137  A    between atoms: _324  and  _327
REMARK  138  A    between atoms: _327  and  _328
REMARK  139  A    between atoms: _328  and  _451
REMARK  140  A    between atoms: _329  and  _331
REMARK  141  A    between atoms: _331  and  _332
REMARK  142  A    between atoms: _331  and  _334
REMARK  143  A    between atoms: _334  and  _335
REMARK  144  A    between atoms: _335  and  _336
REMARK  145  A    between atoms: _341  and  _343
REMARK  146  A    between atoms: _343  and  _344
REMARK  147  A    between atoms: _346  and  _348
REMARK  148  A    between atoms: _348  and  _349
REMARK  149  A    between atoms: _348  and  _351
REMARK  150  A    between atoms: _351  and  _352
REMARK  151  A    between atoms: _355  and  _357
REMARK  152  A    between atoms: _357  and  _358
REMARK  153  A    between atoms: _357  and  _360
REMARK  154  A    between atoms: _360  and  _361
REMARK  155  A    between atoms: _363  and  _365
REMARK  156  A    between atoms: _365  and  _366
REMARK  157  A    between atoms: _368  and  _370
REMARK  158  A    between atoms: _370  and  _371
REMARK  159  A    between atoms: _373  and  _375
REMARK  160  A    between atoms: _375  and  _376
REMARK  161  A    between atoms: _375  and  _378
REMARK  162  A    between atoms: _378  and  _379
REMARK  163  A    between atoms: _384  and  _386
REMARK  164  A    between atoms: _386  and  _387
REMARK  165  A    between atoms: _386  and  _389
REMARK  166  A    between atoms: _389  and  _390
REMARK  167  A    between atoms: _393  and  _395
REMARK  168  A    between atoms: _395  and  _396
REMARK  169  A    between atoms: _395  and  _398
REMARK  170  A    between atoms: _401  and  _403
REMARK  171  A    between atoms: _403  and  _404
REMARK  172  A    between atoms: _403  and  _406
REMARK  173  A    between atoms: _406  and  _407
REMARK  174  A    between atoms: _409  and  _411
REMARK  175  A    between atoms: _411  and  _412
REMARK  176  A    between atoms: _411  and  _414
REMARK  177  A    between atoms: _414  and  _415
REMARK  178  A    between atoms: _425  and  _427
REMARK  179  A    between atoms: _427  and  _428
REMARK  180  A    between atoms: _430  and  _432
REMARK  181  A    between atoms: _432  and  _433
REMARK  182  A    between atoms: _432  and  _435
REMARK  183  A    between atoms: _435  and  _436
REMARK  184  A    between atoms: _436  and  _437
REMARK  185  A    between atoms: _440  and  _442
REMARK  186  A    between atoms: _442  and  _443
REMARK  187  A    between atoms: _445  and  _447
REMARK  188  A    between atoms: _447  and  _448
REMARK  189  A    between atoms: _447  and  _450
REMARK  190  A    between atoms: _450  and  _451
REMARK  191  A    between atoms: _452  and  _454
REMARK  192  A    between atoms: _454  and  _455
REMARK  193  A    between atoms: _458  and  _460
REMARK  194  A    between atoms: _460  and  _461
REMARK  195  A    between atoms: _460  and  _463
REMARK  196  A    between atoms: _463  and  _464
REMARK  197  A    between atoms: _464  and  _465
REMARK  198  A    between atoms: _465  and  _466
REMARK  199  A    between atoms: _475  and  _477
REMARK  200  A    between atoms: _477  and  _478
REMARK  201  A    between atoms: _477  and  _480
REMARK  202  A    between atoms: _480  and  _481
REMARK  203  A    between atoms: _481  and  _482
REMARK  204  A    between atoms: _482  and  _483
REMARK  205  A    between atoms: _483  and  _484
REMARK  206  A    between atoms: _488  and  _490
REMARK  207  A    between atoms: _490  and  _491
REMARK  208  A    between atoms: _490  and  _493
REMARK  209  A    between atoms: _493  and  _494
REMARK  210  A    between atoms: _499  and  _500
REMARK  211  A    between atoms: _502  and  _504
REMARK  212  A    between atoms: _504  and  _505
REMARK  213  A    between atoms: _507  and  _509
REMARK  214  A    between atoms: _509  and  _510
REMARK  215  A    between atoms: _509  and  _512
REMARK  216  A    between atoms: _512  and  _513
REMARK  217  A    between atoms: _516  and  _518
REMARK  218  A    between atoms: _518  and  _519
REMARK  219  A    between atoms: _518  and  _521
REMARK  220  A    between atoms: _521  and  _522
REMARK  221  A    between atoms: _527  and  _528
REMARK  222  A    between atoms: _530  and  _532
REMARK  223  A    between atoms: _532  and  _533
REMARK  224  A    between atoms: _532  and  _535
REMARK  225  A    between atoms: _535  and  _536
REMARK                            x       y       z     vdW  Elec       q    Type
REMARK                         _______ _______ _______ _____ _____    ______ ____
ROOT
ATOM      1  O   HOH     1     -12.151   9.388  22.586  0.00  0.00    +0.000 OA
ENDROOT
TORSDOF 0
REMARK  Name = ../refined-set-2016/2jkh/2jkh_pocket.pdb
REMARK  225 active torsions:
REMARK  status: ('A' for Active; 'I' for Inactive)
REMARK    1  A    between atoms: _1  and  _5
REMARK    2  A    between atoms: _5  and  _6
REMARK    3  A    between atoms: _5  and  _8
REMARK    4  A    between atoms: _8  and  _9
REMARK    5  A    between atoms: _12  and  _14
REMARK    6  A    between atoms: _14  and  _15
REMARK    7  A    between atoms: _14  and  _17
REMARK    8  A    between atoms: _20  and  _22
REMARK    9  A    between atoms: _22  and  _23
REMARK   10  A    between atoms: _22  and  _25
REMARK   11  A    between atoms: _25  and  _26
REMARK   12  A    between atoms: _32  and  _34
REMARK   13  A    between atoms: _34  and  _35
REMARK   14  A    between atoms: _34  and  _37
REMARK   15  A    between atoms: _37  and  _38
REMARK   16  A    between atoms: _43  and  _45
REMARK   17  A    between atoms: _45  and  _46
REMARK   18  A    between atoms: _45  and  _48
REMARK   19  A    between atoms: _48  and  _49
REMARK   20  A    between atoms: _49  and  _50
REMARK   21  A    between atoms: _55  and  _57
REMARK   22  A    between atoms: _57  and  _58
REMARK   23  A    between atoms: _57  and  _60
REMARK   24  A    between atoms: _60  and  _61
REMARK   25  A    between atoms: _67  and  _69
REMARK   26  A    between atoms: _69  and  _70
REMARK   27  A    between atoms: _69  and  _72
REMARK   28  A    between atoms: _72  and  _73
REMARK   29  A    between atoms: _76  and  _78
REMARK   30  A    between atoms: _78  and  _79
REMARK   31  A    between atoms: _78  and  _81
REMARK   32  A    between atoms: _81  and  _82
REMARK   33  A    between atoms: _82  and  _83
REMARK   34  A    between atoms: _83  and  _84
REMARK   35  A    between atoms: _84  and  _85
REMARK   36  A    between atoms: _89  and  _91
REMARK   37  A    between atoms: _91  and  _92
REMARK   38  A    between atoms: _91  and  _94
REMARK   39  A    between atoms: _94  and  _95
REMARK   40  A    between atoms: _95  and  _96
REMARK   41  A    between atoms: _99  and  _101
REMARK   42  A    between atoms: _101  and  _102
REMARK   43  A    between atoms: _101  and  _104
REMARK   44  A    between atoms: _104  and  _105
REMARK   45  A    between atoms: _108  and  _110
REMARK   46  A    between atoms: _110  and  _111
REMARK   47  A    between atoms: _110  and  _113
REMARK   48  A    between atoms: _113  and  _114
REMARK   49  A    between atoms: _119  and  _120
REMARK   50  A    between atoms: _122  and  _124
REMARK   51  A    between atoms: _124  and  _125
REMARK   52  A    between atoms: _124  and  _127
REMARK   53  A    between atoms: _127  and  _128
REMARK   54  A    between atoms: _131  and  _133
REMARK   55  A    between atoms: _133  and  _134
REMARK   56  A    between atoms: _133  and  _136
REMARK   57  A    between atoms: _136  and  _137
REMARK   58  A    between atoms: _140  and  _142
REMARK   59  A    between atoms: _142  and  _143
REMARK   60  A    between atoms: _142  and  _145
REMARK   61  A    between atoms: _148  and  _150
REMARK   62  A    between atoms: _150  and  _151
REMARK   63  A    between atoms: _150  and  _153
REMARK   64  A    between atoms: _153  and  _154
REMARK   65  A    between atoms: _154  and  _155
REMARK   66  A    between atoms: _155  and  _156
REMARK   67  A    between atoms: _165  and  _167
REMARK   68  A    between atoms: _167  and  _168
REMARK   69  A    between atoms: _167  and  _170
REMARK   70  A    between atoms: _170  and  _171
REMARK   71  A    between atoms: _176  and  _178
REMARK   72  A    between atoms: _178  and  _179
REMARK   73  A    between atoms: _178  and  _181
REMARK   74  A    between atoms: _181  and  _182
REMARK   75  A    between atoms: _182  and  _183
REMARK   76  A    between atoms: _186  and  _188
REMARK   77  A    between atoms: _188  and  _189
REMARK   78  A    between atoms: _188  and  _191
REMARK   79  A    between atoms: _191  and  _192
REMARK   80  A    between atoms: _192  and  _193
REMARK   81  A    between atoms: _193  and  _194
REMARK   82  A    between atoms: _194  and  _195
REMARK   83  A    between atoms: _199  and  _201
REMARK   84  A    between atoms: _201  and  _202
REMARK   85  A    between atoms: _204  and  _206
REMARK   86  A    between atoms: _206  and  _207
REMARK   87  A    between atoms: _206  and  _209
REMARK   88  A    between atoms: _212  and  _214
REMARK   89  A    between atoms: _214  and  _215
REMARK   90  A    between atoms: _214  and  _217
REMARK   91  A    between atoms: _217  and  _218
REMARK   92  A    between atoms: _220  and  _222
REMARK   93  A    between atoms: _222  and  _223
REMARK   94  A    between atoms: _222  and  _225
REMARK   95  A    between atoms: _225  and  _226
REMARK   96  A    between atoms: _228  and  _230
REMARK   97  A    between atoms: _230  and  _231
REMARK   98  A    between atoms: _230  and  _233
REMARK   99  A    between atoms: _233  and  _234
REMARK  100  A    between atoms: _240  and  _242
REMARK  101  A    between atoms: _242  and  _243
REMARK  102  A    between atoms: _242  and  _245
REMARK  103  A    between atoms: _245  and  _246
REMARK  104  A    between atoms: _249  and  _251
REMARK  105  A    between atoms: _251  and  _252
REMARK  106  A    between atoms: _251  and  _254
REMARK  107  A    between atoms: _254  and  _255
REMARK  108  A    between atoms: _258  and  _260
REMARK  109  A    between atoms: _260  and  _261
REMARK  110  A    between atoms: _260  and  _263
REMARK  111  A    between atoms: _263  and  _264
REMARK  112  A    between atoms: _264  and  _265
REMARK  113  A    between atoms: _267  and  _269
REMARK  114  A    between atoms: _269  and  _270
REMARK  115  A    between atoms: _269  and  _272
REMARK  116  A    between atoms: _272  and  _273
REMARK  117  A    between atoms: _279  and  _281
REMARK  118  A    between atoms: _281  and  _282
REMARK  119  A    between atoms: _281  and  _284
REMARK  120  A    between atoms: _286  and  _288
REMARK  121  A    between atoms: _288  and  _289
REMARK  122  A    between atoms: _292  and  _294
REMARK  123  A    between atoms: _294  and  _295
REMARK  124  A    between atoms: _297  and  _299
REMARK  125  A    between atoms: _299  and  _300
REMARK  126  A    between atoms: _299  and  _302
REMARK  127  A    between atoms: _302  and  _303
REMARK  128  A    between atoms: _303  and  _304
REMARK  129  A    between atoms: _307  and  _309
REMARK  130  A    between atoms: _309  and  _310
REMARK  131  A    between atoms: _309  and  _312
REMARK  132  A    between atoms: _312  and  _313
REMARK  133  A    between atoms: _316  and  _318
REMARK  134  A    between atoms: _318  and  _319
REMARK  135  A    between atoms: _322  and  _324
REMARK  136  A    between atoms: _324  and  _325
REMARK  137  A    between atoms: _324  and  _327
REMARK  138  A    between atoms: _327  and  _328
REMARK  139  A    between atoms: _328  and  _451
REMARK  140  A    between atoms: _329  and  _331
REMARK  141  A    between atoms: _331  and  _332
REMARK  142  A    between atoms: _331  and  _334
REMARK  143  A    between atoms: _334  and  _335
REMARK  144  A    between atoms: _335  and  _336
REMARK  145  A    between atoms: _341  and  _343
REMARK  146  A    between atoms: _343  and  _344
REMARK  147  A    between atoms: _346  and  _348
REMARK  148  A    between atoms: _348  and  _349
REMARK  149  A    between atoms: _348  and  _351
REMARK  150  A    between atoms: _351  and  _352
REMARK  151  A    between atoms: _355  and  _357
REMARK  152  A    between atoms: _357  and  _358
REMARK  153  A    between atoms: _357  and  _360
REMARK  154  A    between atoms: _360  and  _361
REMARK  155  A    between atoms: _363  and  _365
REMARK  156  A    between atoms: _365  and  _366
REMARK  157  A    between atoms: _368  and  _370
REMARK  158  A    between atoms: _370  and  _371
REMARK  159  A    between atoms: _373  and  _375
REMARK  160  A    between atoms: _375  and  _376
REMARK  161  A    between atoms: _375  and  _378
REMARK  162  A    between atoms: _378  and  _379
REMARK  163  A    between atoms: _384  and  _386
REMARK  164  A    between atoms: _386  and  _387
REMARK  165  A    between atoms: _386  and  _389
REMARK  166  A    between atoms: _389  and  _390
REMARK  167  A    between atoms: _393  and  _395
REMARK  168  A    between atoms: _395  and  _396
REMARK  169  A    between atoms: _395  and  _398
REMARK  170  A    between atoms: _401  and  _403
REMARK  171  A    between atoms: _403  and  _404
REMARK  172  A    between atoms: _403  and  _406
REMARK  173  A    between atoms: _406  and  _407
REMARK  174  A    between atoms: _409  and  _411
REMARK  175  A    between atoms: _411  and  _412
REMARK  176  A    between atoms: _411  and  _414
REMARK  177  A    between atoms: _414  and  _415
REMARK  178  A    between atoms: _425  and  _427
REMARK  179  A    between atoms: _427  and  _428
REMARK  180  A    between atoms: _430  and  _432
REMARK  181  A    between atoms: _432  and  _433
REMARK  182  A    between atoms: _432  and  _435
REMARK  183  A    between atoms: _435  and  _436
REMARK  184  A    between atoms: _436  and  _437
REMARK  185  A    between atoms: _440  and  _442
REMARK  186  A    between atoms: _442  and  _443
REMARK  187  A    between atoms: _445  and  _447
REMARK  188  A    between atoms: _447  and  _448
REMARK  189  A    between atoms: _447  and  _450
REMARK  190  A    between atoms: _450  and  _451
REMARK  191  A    between atoms: _452  and  _454
REMARK  192  A    between atoms: _454  and  _455
REMARK  193  A    between atoms: _458  and  _460
REMARK  194  A    between atoms: _460  and  _461
REMARK  195  A    between atoms: _460  and  _463
REMARK  196  A    between atoms: _463  and  _464
REMARK  197  A    between atoms: _464  and  _465
REMARK  198  A    between atoms: _465  and  _466
REMARK  199  A    between atoms: _475  and  _477
REMARK  200  A    between atoms: _477  and  _478
REMARK  201  A    between atoms: _477  and  _480
REMARK  202  A    between atoms: _480  and  _481
REMARK  203  A    between atoms: _481  and  _482
REMARK  204  A    between atoms: _482  and  _483
REMARK  205  A    between atoms: _483  and  _484
REMARK  206  A    between atoms: _488  and  _490
REMARK  207  A    between atoms: _490  and  _491
REMARK  208  A    between atoms: _490  and  _493
REMARK  209  A    between atoms: _493  and  _494
REMARK  210  A    between atoms: _499  and  _500
REMARK  211  A    between atoms: _502  and  _504
REMARK  212  A    between atoms: _504  and  _505
REMARK  213  A    between atoms: _507  and  _509
REMARK  214  A    between atoms: _509  and  _510
REMARK  215  A    between atoms: _509  and  _512
REMARK  216  A    between atoms: _512  and  _513
REMARK  217  A    between atoms: _516  and  _518
REMARK  218  A    between atoms: _518  and  _519
REMARK  219  A    between atoms: _518  and  _521
REMARK  220  A    between atoms: _521  and  _522
REMARK  221  A    between atoms: _527  and  _528
REMARK  222  A    between atoms: _530  and  _532
REMARK  223  A    between atoms: _532  and  _533
REMARK  224  A    between atoms: _532  and  _535
REMARK  225  A    between atoms: _535  and  _536
REMARK                            x       y       z     vdW  Elec       q    Type
REMARK                         _______ _______ _______ _____ _____    ______ ____
ROOT
ATOM      1  O   HOH     1     -11.516  12.178  24.108  0.00  0.00    +0.000 OA
ENDROOT
TORSDOF 0
REMARK  Name = ../refined-set-2016/2jkh/2jkh_pocket.pdb
REMARK  225 active torsions:
REMARK  status: ('A' for Active; 'I' for Inactive)
REMARK    1  A    between atoms: _1  and  _5
REMARK    2  A    between atoms: _5  and  _6
REMARK    3  A    between atoms: _5  and  _8
REMARK    4  A    between atoms: _8  and  _9
REMARK    5  A    between atoms: _12  and  _14
REMARK    6  A    between atoms: _14  and  _15
REMARK    7  A    between atoms: _14  and  _17
REMARK    8  A    between atoms: _20  and  _22
REMARK    9  A    between atoms: _22  and  _23
REMARK   10  A    between atoms: _22  and  _25
REMARK   11  A    between atoms: _25  and  _26
REMARK   12  A    between atoms: _32  and  _34
REMARK   13  A    between atoms: _34  and  _35
REMARK   14  A    between atoms: _34  and  _37
REMARK   15  A    between atoms: _37  and  _38
REMARK   16  A    between atoms: _43  and  _45
REMARK   17  A    between atoms: _45  and  _46
REMARK   18  A    between atoms: _45  and  _48
REMARK   19  A    between atoms: _48  and  _49
REMARK   20  A    between atoms: _49  and  _50
REMARK   21  A    between atoms: _55  and  _57
REMARK   22  A    between atoms: _57  and  _58
REMARK   23  A    between atoms: _57  and  _60
REMARK   24  A    between atoms: _60  and  _61
REMARK   25  A    between atoms: _67  and  _69
REMARK   26  A    between atoms: _69  and  _70
REMARK   27  A    between atoms: _69  and  _72
REMARK   28  A    between atoms: _72  and  _73
REMARK   29  A    between atoms: _76  and  _78
REMARK   30  A    between atoms: _78  and  _79
REMARK   31  A    between atoms: _78  and  _81
REMARK   32  A    between atoms: _81  and  _82
REMARK   33  A    between atoms: _82  and  _83
REMARK   34  A    between atoms: _83  and  _84
REMARK   35  A    between atoms: _84  and  _85
REMARK   36  A    between atoms: _89  and  _91
REMARK   37  A    between atoms: _91  and  _92
REMARK   38  A    between atoms: _91  and  _94
REMARK   39  A    between atoms: _94  and  _95
REMARK   40  A    between atoms: _95  and  _96
REMARK   41  A    between atoms: _99  and  _101
REMARK   42  A    between atoms: _101  and  _102
REMARK   43  A    between atoms: _101  and  _104
REMARK   44  A    between atoms: _104  and  _105
REMARK   45  A    between atoms: _108  and  _110
REMARK   46  A    between atoms: _110  and  _111
REMARK   47  A    between atoms: _110  and  _113
REMARK   48  A    between atoms: _113  and  _114
REMARK   49  A    between atoms: _119  and  _120
REMARK   50  A    between atoms: _122  and  _124
REMARK   51  A    between atoms: _124  and  _125
REMARK   52  A    between atoms: _124  and  _127
REMARK   53  A    between atoms: _127  and  _128
REMARK   54  A    between atoms: _131  and  _133
REMARK   55  A    between atoms: _133  and  _134
REMARK   56  A    between atoms: _133  and  _136
REMARK   57  A    between atoms: _136  and  _137
REMARK   58  A    between atoms: _140  and  _142
REMARK   59  A    between atoms: _142  and  _143
REMARK   60  A    between atoms: _142  and  _145
REMARK   61  A    between atoms: _148  and  _150
REMARK   62  A    between atoms: _150  and  _151
REMARK   63  A    between atoms: _150  and  _153
REMARK   64  A    between atoms: _153  and  _154
REMARK   65  A    between atoms: _154  and  _155
REMARK   66  A    between atoms: _155  and  _156
REMARK   67  A    between atoms: _165  and  _167
REMARK   68  A    between atoms: _167  and  _168
REMARK   69  A    between atoms: _167  and  _170
REMARK   70  A    between atoms: _170  and  _171
REMARK   71  A    between atoms: _176  and  _178
REMARK   72  A    between atoms: _178  and  _179
REMARK   73  A    between atoms: _178  and  _181
REMARK   74  A    between atoms: _181  and  _182
REMARK   75  A    between atoms: _182  and  _183
REMARK   76  A    between atoms: _186  and  _188
REMARK   77  A    between atoms: _188  and  _189
REMARK   78  A    between atoms: _188  and  _191
REMARK   79  A    between atoms: _191  and  _192
REMARK   80  A    between atoms: _192  and  _193
REMARK   81  A    between atoms: _193  and  _194
REMARK   82  A    between atoms: _194  and  _195
REMARK   83  A    between atoms: _199  and  _201
REMARK   84  A    between atoms: _201  and  _202
REMARK   85  A    between atoms: _204  and  _206
REMARK   86  A    between atoms: _206  and  _207
REMARK   87  A    between atoms: _206  and  _209
REMARK   88  A    between atoms: _212  and  _214
REMARK   89  A    between atoms: _214  and  _215
REMARK   90  A    between atoms: _214  and  _217
REMARK   91  A    between atoms: _217  and  _218
REMARK   92  A    between atoms: _220  and  _222
REMARK   93  A    between atoms: _222  and  _223
REMARK   94  A    between atoms: _222  and  _225
REMARK   95  A    between atoms: _225  and  _226
REMARK   96  A    between atoms: _228  and  _230
REMARK   97  A    between atoms: _230  and  _231
REMARK   98  A    between atoms: _230  and  _233
REMARK   99  A    between atoms: _233  and  _234
REMARK  100  A    between atoms: _240  and  _242
REMARK  101  A    between atoms: _242  and  _243
REMARK  102  A    between atoms: _242  and  _245
REMARK  103  A    between atoms: _245  and  _246
REMARK  104  A    between atoms: _249  and  _251
REMARK  105  A    between atoms: _251  and  _252
REMARK  106  A    between atoms: _251  and  _254
REMARK  107  A    between atoms: _254  and  _255
REMARK  108  A    between atoms: _258  and  _260
REMARK  109  A    between atoms: _260  and  _261
REMARK  110  A    between atoms: _260  and  _263
REMARK  111  A    between atoms: _263  and  _264
REMARK  112  A    between atoms: _264  and  _265
REMARK  113  A    between atoms: _267  and  _269
REMARK  114  A    between atoms: _269  and  _270
REMARK  115  A    between atoms: _269  and  _272
REMARK  116  A    between atoms: _272  and  _273
REMARK  117  A    between atoms: _279  and  _281
REMARK  118  A    between atoms: _281  and  _282
REMARK  119  A    between atoms: _281  and  _284
REMARK  120  A    between atoms: _286  and  _288
REMARK  121  A    between atoms: _288  and  _289
REMARK  122  A    between atoms: _292  and  _294
REMARK  123  A    between atoms: _294  and  _295
REMARK  124  A    between atoms: _297  and  _299
REMARK  125  A    between atoms: _299  and  _300
REMARK  126  A    between atoms: _299  and  _302
REMARK  127  A    between atoms: _302  and  _303
REMARK  128  A    between atoms: _303  and  _304
REMARK  129  A    between atoms: _307  and  _309
REMARK  130  A    between atoms: _309  and  _310
REMARK  131  A    between atoms: _309  and  _312
REMARK  132  A    between atoms: _312  and  _313
REMARK  133  A    between atoms: _316  and  _318
REMARK  134  A    between atoms: _318  and  _319
REMARK  135  A    between atoms: _322  and  _324
REMARK  136  A    between atoms: _324  and  _325
REMARK  137  A    between atoms: _324  and  _327
REMARK  138  A    between atoms: _327  and  _328
REMARK  139  A    between atoms: _328  and  _451
REMARK  140  A    between atoms: _329  and  _331
REMARK  141  A    between atoms: _331  and  _332
REMARK  142  A    between atoms: _331  and  _334
REMARK  143  A    between atoms: _334  and  _335
REMARK  144  A    between atoms: _335  and  _336
REMARK  145  A    between atoms: _341  and  _343
REMARK  146  A    between atoms: _343  and  _344
REMARK  147  A    between atoms: _346  and  _348
REMARK  148  A    between atoms: _348  and  _349
REMARK  149  A    between atoms: _348  and  _351
REMARK  150  A    between atoms: _351  and  _352
REMARK  151  A    between atoms: _355  and  _357
REMARK  152  A    between atoms: _357  and  _358
REMARK  153  A    between atoms: _357  and  _360
REMARK  154  A    between atoms: _360  and  _361
REMARK  155  A    between atoms: _363  and  _365
REMARK  156  A    between atoms: _365  and  _366
REMARK  157  A    between atoms: _368  and  _370
REMARK  158  A    between atoms: _370  and  _371
REMARK  159  A    between atoms: _373  and  _375
REMARK  160  A    between atoms: _375  and  _376
REMARK  161  A    between atoms: _375  and  _378
REMARK  162  A    between atoms: _378  and  _379
REMARK  163  A    between atoms: _384  and  _386
REMARK  164  A    between atoms: _386  and  _387
REMARK  165  A    between atoms: _386  and  _389
REMARK  166  A    between atoms: _389  and  _390
REMARK  167  A    between atoms: _393  and  _395
REMARK  168  A    between atoms: _395  and  _396
REMARK  169  A    between atoms: _395  and  _398
REMARK  170  A    between atoms: _401  and  _403
REMARK  171  A    between atoms: _403  and  _404
REMARK  172  A    between atoms: _403  and  _406
REMARK  173  A    between atoms: _406  and  _407
REMARK  174  A    between atoms: _409  and  _411
REMARK  175  A    between atoms: _411  and  _412
REMARK  176  A    between atoms: _411  and  _414
REMARK  177  A    between atoms: _414  and  _415
REMARK  178  A    between atoms: _425  and  _427
REMARK  179  A    between atoms: _427  and  _428
REMARK  180  A    between atoms: _430  and  _432
REMARK  181  A    between atoms: _432  and  _433
REMARK  182  A    between atoms: _432  and  _435
REMARK  183  A    between atoms: _435  and  _436
REMARK  184  A    between atoms: _436  and  _437
REMARK  185  A    between atoms: _440  and  _442
REMARK  186  A    between atoms: _442  and  _443
REMARK  187  A    between atoms: _445  and  _447
REMARK  188  A    between atoms: _447  and  _448
REMARK  189  A    between atoms: _447  and  _450
REMARK  190  A    between atoms: _450  and  _451
REMARK  191  A    between atoms: _452  and  _454
REMARK  192  A    between atoms: _454  and  _455
REMARK  193  A    between atoms: _458  and  _460
REMARK  194  A    between atoms: _460  and  _461
REMARK  195  A    between atoms: _460  and  _463
REMARK  196  A    between atoms: _463  and  _464
REMARK  197  A    between atoms: _464  and  _465
REMARK  198  A    between atoms: _465  and  _466
REMARK  199  A    between atoms: _475  and  _477
REMARK  200  A    between atoms: _477  and  _478
REMARK  201  A    between atoms: _477  and  _480
REMARK  202  A    between atoms: _480  and  _481
REMARK  203  A    between atoms: _481  and  _482
REMARK  204  A    between atoms: _482  and  _483
REMARK  205  A    between atoms: _483  and  _484
REMARK  206  A    between atoms: _488  and  _490
REMARK  207  A    between atoms: _490  and  _491
REMARK  208  A    between atoms: _490  and  _493
REMARK  209  A    between atoms: _493  and  _494
REMARK  210  A    between atoms: _499  and  _500
REMARK  211  A    between atoms: _502  and  _504
REMARK  212  A    between atoms: _504  and  _505
REMARK  213  A    between atoms: _507  and  _509
REMARK  214  A    between atoms: _509  and  _510
REMARK  215  A    between atoms: _509  and  _512
REMARK  216  A    between atoms: _512  and  _513
REMARK  217  A    between atoms: _516  and  _518
REMARK  218  A    between atoms: _518  and  _519
REMARK  219  A    between atoms: _518  and  _521
REMARK  220  A    between atoms: _521  and  _522
REMARK  221  A    between atoms: _527  and  _528
REMARK  222  A    between atoms: _530  and  _532
REMARK  223  A    between atoms: _532  and  _533
REMARK  224  A    between atoms: _532  and  _535
REMARK  225  A    between atoms: _535  and  _536
REMARK                            x       y       z     vdW  Elec       q    Type
REMARK                         _______ _______ _______ _____ _____    ______ ____
ROOT
ATOM      1  O   HOH     1      -6.476   6.208  32.752  0.00  0.00    +0.000 OA
ENDROOT
TORSDOF 0
REMARK  Name = ../refined-set-2016/2jkh/2jkh_pocket.pdb
REMARK  225 active torsions:
REMARK  status: ('A' for Active; 'I' for Inactive)
REMARK    1  A    between atoms: _1  and  _5
REMARK    2  A    between atoms: _5  and  _6
REMARK    3  A    between atoms: _5  and  _8
REMARK    4  A    between atoms: _8  and  _9
REMARK    5  A    between atoms: _12  and  _14
REMARK    6  A    between atoms: _14  and  _15
REMARK    7  A    between atoms: _14  and  _17
REMARK    8  A    between atoms: _20  and  _22
REMARK    9  A    between atoms: _22  and  _23
REMARK   10  A    between atoms: _22  and  _25
REMARK   11  A    between atoms: _25  and  _26
REMARK   12  A    between atoms: _32  and  _34
REMARK   13  A    between atoms: _34  and  _35
REMARK   14  A    between atoms: _34  and  _37
REMARK   15  A    between atoms: _37  and  _38
REMARK   16  A    between atoms: _43  and  _45
REMARK   17  A    between atoms: _45  and  _46
REMARK   18  A    between atoms: _45  and  _48
REMARK   19  A    between atoms: _48  and  _49
REMARK   20  A    between atoms: _49  and  _50
REMARK   21  A    between atoms: _55  and  _57
REMARK   22  A    between atoms: _57  and  _58
REMARK   23  A    between atoms: _57  and  _60
REMARK   24  A    between atoms: _60  and  _61
REMARK   25  A    between atoms: _67  and  _69
REMARK   26  A    between atoms: _69  and  _70
REMARK   27  A    between atoms: _69  and  _72
REMARK   28  A    between atoms: _72  and  _73
REMARK   29  A    between atoms: _76  and  _78
REMARK   30  A    between atoms: _78  and  _79
REMARK   31  A    between atoms: _78  and  _81
REMARK   32  A    between atoms: _81  and  _82
REMARK   33  A    between atoms: _82  and  _83
REMARK   34  A    between atoms: _83  and  _84
REMARK   35  A    between atoms: _84  and  _85
REMARK   36  A    between atoms: _89  and  _91
REMARK   37  A    between atoms: _91  and  _92
REMARK   38  A    between atoms: _91  and  _94
REMARK   39  A    between atoms: _94  and  _95
REMARK   40  A    between atoms: _95  and  _96
REMARK   41  A    between atoms: _99  and  _101
REMARK   42  A    between atoms: _101  and  _102
REMARK   43  A    between atoms: _101  and  _104
REMARK   44  A    between atoms: _104  and  _105
REMARK   45  A    between atoms: _108  and  _110
REMARK   46  A    between atoms: _110  and  _111
REMARK   47  A    between atoms: _110  and  _113
REMARK   48  A    between atoms: _113  and  _114
REMARK   49  A    between atoms: _119  and  _120
REMARK   50  A    between atoms: _122  and  _124
REMARK   51  A    between atoms: _124  and  _125
REMARK   52  A    between atoms: _124  and  _127
REMARK   53  A    between atoms: _127  and  _128
REMARK   54  A    between atoms: _131  and  _133
REMARK   55  A    between atoms: _133  and  _134
REMARK   56  A    between atoms: _133  and  _136
REMARK   57  A    between atoms: _136  and  _137
REMARK   58  A    between atoms: _140  and  _142
REMARK   59  A    between atoms: _142  and  _143
REMARK   60  A    between atoms: _142  and  _145
REMARK   61  A    between atoms: _148  and  _150
REMARK   62  A    between atoms: _150  and  _151
REMARK   63  A    between atoms: _150  and  _153
REMARK   64  A    between atoms: _153  and  _154
REMARK   65  A    between atoms: _154  and  _155
REMARK   66  A    between atoms: _155  and  _156
REMARK   67  A    between atoms: _165  and  _167
REMARK   68  A    between atoms: _167  and  _168
REMARK   69  A    between atoms: _167  and  _170
REMARK   70  A    between atoms: _170  and  _171
REMARK   71  A    between atoms: _176  and  _178
REMARK   72  A    between atoms: _178  and  _179
REMARK   73  A    between atoms: _178  and  _181
REMARK   74  A    between atoms: _181  and  _182
REMARK   75  A    between atoms: _182  and  _183
REMARK   76  A    between atoms: _186  and  _188
REMARK   77  A    between atoms: _188  and  _189
REMARK   78  A    between atoms: _188  and  _191
REMARK   79  A    between atoms: _191  and  _192
REMARK   80  A    between atoms: _192  and  _193
REMARK   81  A    between atoms: _193  and  _194
REMARK   82  A    between atoms: _194  and  _195
REMARK   83  A    between atoms: _199  and  _201
REMARK   84  A    between atoms: _201  and  _202
REMARK   85  A    between atoms: _204  and  _206
REMARK   86  A    between atoms: _206  and  _207
REMARK   87  A    between atoms: _206  and  _209
REMARK   88  A    between atoms: _212  and  _214
REMARK   89  A    between atoms: _214  and  _215
REMARK   90  A    between atoms: _214  and  _217
REMARK   91  A    between atoms: _217  and  _218
REMARK   92  A    between atoms: _220  and  _222
REMARK   93  A    between atoms: _222  and  _223
REMARK   94  A    between atoms: _222  and  _225
REMARK   95  A    between atoms: _225  and  _226
REMARK   96  A    between atoms: _228  and  _230
REMARK   97  A    between atoms: _230  and  _231
REMARK   98  A    between atoms: _230  and  _233
REMARK   99  A    between atoms: _233  and  _234
REMARK  100  A    between atoms: _240  and  _242
REMARK  101  A    between atoms: _242  and  _243
REMARK  102  A    between atoms: _242  and  _245
REMARK  103  A    between atoms: _245  and  _246
REMARK  104  A    between atoms: _249  and  _251
REMARK  105  A    between atoms: _251  and  _252
REMARK  106  A    between atoms: _251  and  _254
REMARK  107  A    between atoms: _254  and  _255
REMARK  108  A    between atoms: _258  and  _260
REMARK  109  A    between atoms: _260  and  _261
REMARK  110  A    between atoms: _260  and  _263
REMARK  111  A    between atoms: _263  and  _264
REMARK  112  A    between atoms: _264  and  _265
REMARK  113  A    between atoms: _267  and  _269
REMARK  114  A    between atoms: _269  and  _270
REMARK  115  A    between atoms: _269  and  _272
REMARK  116  A    between atoms: _272  and  _273
REMARK  117  A    between atoms: _279  and  _281
REMARK  118  A    between atoms: _281  and  _282
REMARK  119  A    between atoms: _281  and  _284
REMARK  120  A    between atoms: _286  and  _288
REMARK  121  A    between atoms: _288  and  _289
REMARK  122  A    between atoms: _292  and  _294
REMARK  123  A    between atoms: _294  and  _295
REMARK  124  A    between atoms: _297  and  _299
REMARK  125  A    between atoms: _299  and  _300
REMARK  126  A    between atoms: _299  and  _302
REMARK  127  A    between atoms: _302  and  _303
REMARK  128  A    between atoms: _303  and  _304
REMARK  129  A    between atoms: _307  and  _309
REMARK  130  A    between atoms: _309  and  _310
REMARK  131  A    between atoms: _309  and  _312
REMARK  132  A    between atoms: _312  and  _313
REMARK  133  A    between atoms: _316  and  _318
REMARK  134  A    between atoms: _318  and  _319
REMARK  135  A    between atoms: _322  and  _324
REMARK  136  A    between atoms: _324  and  _325
REMARK  137  A    between atoms: _324  and  _327
REMARK  138  A    between atoms: _327  and  _328
REMARK  139  A    between atoms: _328  and  _451
REMARK  140  A    between atoms: _329  and  _331
REMARK  141  A    between atoms: _331  and  _332
REMARK  142  A    between atoms: _331  and  _334
REMARK  143  A    between atoms: _334  and  _335
REMARK  144  A    between atoms: _335  and  _336
REMARK  145  A    between atoms: _341  and  _343
REMARK  146  A    between atoms: _343  and  _344
REMARK  147  A    between atoms: _346  and  _348
REMARK  148  A    between atoms: _348  and  _349
REMARK  149  A    between atoms: _348  and  _351
REMARK  150  A    between atoms: _351  and  _352
REMARK  151  A    between atoms: _355  and  _357
REMARK  152  A    between atoms: _357  and  _358
REMARK  153  A    between atoms: _357  and  _360
REMARK  154  A    between atoms: _360  and  _361
REMARK  155  A    between atoms: _363  and  _365
REMARK  156  A    between atoms: _365  and  _366
REMARK  157  A    between atoms: _368  and  _370
REMARK  158  A    between atoms: _370  and  _371
REMARK  159  A    between atoms: _373  and  _375
REMARK  160  A    between atoms: _375  and  _376
REMARK  161  A    between atoms: _375  and  _378
REMARK  162  A    between atoms: _378  and  _379
REMARK  163  A    between atoms: _384  and  _386
REMARK  164  A    between atoms: _386  and  _387
REMARK  165  A    between atoms: _386  and  _389
REMARK  166  A    between atoms: _389  and  _390
REMARK  167  A    between atoms: _393  and  _395
REMARK  168  A    between atoms: _395  and  _396
REMARK  169  A    between atoms: _395  and  _398
REMARK  170  A    between atoms: _401  and  _403
REMARK  171  A    between atoms: _403  and  _404
REMARK  172  A    between atoms: _403  and  _406
REMARK  173  A    between atoms: _406  and  _407
REMARK  174  A    between atoms: _409  and  _411
REMARK  175  A    between atoms: _411  and  _412
REMARK  176  A    between atoms: _411  and  _414
REMARK  177  A    between atoms: _414  and  _415
REMARK  178  A    between atoms: _425  and  _427
REMARK  179  A    between atoms: _427  and  _428
REMARK  180  A    between atoms: _430  and  _432
REMARK  181  A    between atoms: _432  and  _433
REMARK  182  A    between atoms: _432  and  _435
REMARK  183  A    between atoms: _435  and  _436
REMARK  184  A    between atoms: _436  and  _437
REMARK  185  A    between atoms: _440  and  _442
REMARK  186  A    between atoms: _442  and  _443
REMARK  187  A    between atoms: _445  and  _447
REMARK  188  A    between atoms: _447  and  _448
REMARK  189  A    between atoms: _447  and  _450
REMARK  190  A    between atoms: _450  and  _451
REMARK  191  A    between atoms: _452  and  _454
REMARK  192  A    between atoms: _454  and  _455
REMARK  193  A    between atoms: _458  and  _460
REMARK  194  A    between atoms: _460  and  _461
REMARK  195  A    between atoms: _460  and  _463
REMARK  196  A    between atoms: _463  and  _464
REMARK  197  A    between atoms: _464  and  _465
REMARK  198  A    between atoms: _465  and  _466
REMARK  199  A    between atoms: _475  and  _477
REMARK  200  A    between atoms: _477  and  _478
REMARK  201  A    between atoms: _477  and  _480
REMARK  202  A    between atoms: _480  and  _481
REMARK  203  A    between atoms: _481  and  _482
REMARK  204  A    between atoms: _482  and  _483
REMARK  205  A    between atoms: _483  and  _484
REMARK  206  A    between atoms: _488  and  _490
REMARK  207  A    between atoms: _490  and  _491
REMARK  208  A    between atoms: _490  and  _493
REMARK  209  A    between atoms: _493  and  _494
REMARK  210  A    between atoms: _499  and  _500
REMARK  211  A    between atoms: _502  and  _504
REMARK  212  A    between atoms: _504  and  _505
REMARK  213  A    between atoms: _507  and  _509
REMARK  214  A    between atoms: _509  and  _510
REMARK  215  A    between atoms: _509  and  _512
REMARK  216  A    between atoms: _512  and  _513
REMARK  217  A    between atoms: _516  and  _518
REMARK  218  A    between atoms: _518  and  _519
REMARK  219  A    between atoms: _518  and  _521
REMARK  220  A    between atoms: _521  and  _522
REMARK  221  A    between atoms: _527  and  _528
REMARK  222  A    between atoms: _530  and  _532
REMARK  223  A    between atoms: _532  and  _533
REMARK  224  A    between atoms: _532  and  _535
REMARK  225  A    between atoms: _535  and  _536
REMARK                            x       y       z     vdW  Elec       q    Type
REMARK                         _______ _______ _______ _____ _____    ______ ____
ROOT
ATOM      1  O   HOH     1      -7.801   5.438  26.739  0.00  0.00    +0.000 OA
ENDROOT
TORSDOF 0
REMARK  Name = ../refined-set-2016/2jkh/2jkh_pocket.pdb
REMARK  225 active torsions:
REMARK  status: ('A' for Active; 'I' for Inactive)
REMARK    1  A    between atoms: _1  and  _5
REMARK    2  A    between atoms: _5  and  _6
REMARK    3  A    between atoms: _5  and  _8
REMARK    4  A    between atoms: _8  and  _9
REMARK    5  A    between atoms: _12  and  _14
REMARK    6  A    between atoms: _14  and  _15
REMARK    7  A    between atoms: _14  and  _17
REMARK    8  A    between atoms: _20  and  _22
REMARK    9  A    between atoms: _22  and  _23
REMARK   10  A    between atoms: _22  and  _25
REMARK   11  A    between atoms: _25  and  _26
REMARK   12  A    between atoms: _32  and  _34
REMARK   13  A    between atoms: _34  and  _35
REMARK   14  A    between atoms: _34  and  _37
REMARK   15  A    between atoms: _37  and  _38
REMARK   16  A    between atoms: _43  and  _45
REMARK   17  A    between atoms: _45  and  _46
REMARK   18  A    between atoms: _45  and  _48
REMARK   19  A    between atoms: _48  and  _49
REMARK   20  A    between atoms: _49  and  _50
REMARK   21  A    between atoms: _55  and  _57
REMARK   22  A    between atoms: _57  and  _58
REMARK   23  A    between atoms: _57  and  _60
REMARK   24  A    between atoms: _60  and  _61
REMARK   25  A    between atoms: _67  and  _69
REMARK   26  A    between atoms: _69  and  _70
REMARK   27  A    between atoms: _69  and  _72
REMARK   28  A    between atoms: _72  and  _73
REMARK   29  A    between atoms: _76  and  _78
REMARK   30  A    between atoms: _78  and  _79
REMARK   31  A    between atoms: _78  and  _81
REMARK   32  A    between atoms: _81  and  _82
REMARK   33  A    between atoms: _82  and  _83
REMARK   34  A    between atoms: _83  and  _84
REMARK   35  A    between atoms: _84  and  _85
REMARK   36  A    between atoms: _89  and  _91
REMARK   37  A    between atoms: _91  and  _92
REMARK   38  A    between atoms: _91  and  _94
REMARK   39  A    between atoms: _94  and  _95
REMARK   40  A    between atoms: _95  and  _96
REMARK   41  A    between atoms: _99  and  _101
REMARK   42  A    between atoms: _101  and  _102
REMARK   43  A    between atoms: _101  and  _104
REMARK   44  A    between atoms: _104  and  _105
REMARK   45  A    between atoms: _108  and  _110
REMARK   46  A    between atoms: _110  and  _111
REMARK   47  A    between atoms: _110  and  _113
REMARK   48  A    between atoms: _113  and  _114
REMARK   49  A    between atoms: _119  and  _120
REMARK   50  A    between atoms: _122  and  _124
REMARK   51  A    between atoms: _124  and  _125
REMARK   52  A    between atoms: _124  and  _127
REMARK   53  A    between atoms: _127  and  _128
REMARK   54  A    between atoms: _131  and  _133
REMARK   55  A    between atoms: _133  and  _134
REMARK   56  A    between atoms: _133  and  _136
REMARK   57  A    between atoms: _136  and  _137
REMARK   58  A    between atoms: _140  and  _142
REMARK   59  A    between atoms: _142  and  _143
REMARK   60  A    between atoms: _142  and  _145
REMARK   61  A    between atoms: _148  and  _150
REMARK   62  A    between atoms: _150  and  _151
REMARK   63  A    between atoms: _150  and  _153
REMARK   64  A    between atoms: _153  and  _154
REMARK   65  A    between atoms: _154  and  _155
REMARK   66  A    between atoms: _155  and  _156
REMARK   67  A    between atoms: _165  and  _167
REMARK   68  A    between atoms: _167  and  _168
REMARK   69  A    between atoms: _167  and  _170
REMARK   70  A    between atoms: _170  and  _171
REMARK   71  A    between atoms: _176  and  _178
REMARK   72  A    between atoms: _178  and  _179
REMARK   73  A    between atoms: _178  and  _181
REMARK   74  A    between atoms: _181  and  _182
REMARK   75  A    between atoms: _182  and  _183
REMARK   76  A    between atoms: _186  and  _188
REMARK   77  A    between atoms: _188  and  _189
REMARK   78  A    between atoms: _188  and  _191
REMARK   79  A    between atoms: _191  and  _192
REMARK   80  A    between atoms: _192  and  _193
REMARK   81  A    between atoms: _193  and  _194
REMARK   82  A    between atoms: _194  and  _195
REMARK   83  A    between atoms: _199  and  _201
REMARK   84  A    between atoms: _201  and  _202
REMARK   85  A    between atoms: _204  and  _206
REMARK   86  A    between atoms: _206  and  _207
REMARK   87  A    between atoms: _206  and  _209
REMARK   88  A    between atoms: _212  and  _214
REMARK   89  A    between atoms: _214  and  _215
REMARK   90  A    between atoms: _214  and  _217
REMARK   91  A    between atoms: _217  and  _218
REMARK   92  A    between atoms: _220  and  _222
REMARK   93  A    between atoms: _222  and  _223
REMARK   94  A    between atoms: _222  and  _225
REMARK   95  A    between atoms: _225  and  _226
REMARK   96  A    between atoms: _228  and  _230
REMARK   97  A    between atoms: _230  and  _231
REMARK   98  A    between atoms: _230  and  _233
REMARK   99  A    between atoms: _233  and  _234
REMARK  100  A    between atoms: _240  and  _242
REMARK  101  A    between atoms: _242  and  _243
REMARK  102  A    between atoms: _242  and  _245
REMARK  103  A    between atoms: _245  and  _246
REMARK  104  A    between atoms: _249  and  _251
REMARK  105  A    between atoms: _251  and  _252
REMARK  106  A    between atoms: _251  and  _254
REMARK  107  A    between atoms: _254  and  _255
REMARK  108  A    between atoms: _258  and  _260
REMARK  109  A    between atoms: _260  and  _261
REMARK  110  A    between atoms: _260  and  _263
REMARK  111  A    between atoms: _263  and  _264
REMARK  112  A    between atoms: _264  and  _265
REMARK  113  A    between atoms: _267  and  _269
REMARK  114  A    between atoms: _269  and  _270
REMARK  115  A    between atoms: _269  and  _272
REMARK  116  A    between atoms: _272  and  _273
REMARK  117  A    between atoms: _279  and  _281
REMARK  118  A    between atoms: _281  and  _282
REMARK  119  A    between atoms: _281  and  _284
REMARK  120  A    between atoms: _286  and  _288
REMARK  121  A    between atoms: _288  and  _289
REMARK  122  A    between atoms: _292  and  _294
REMARK  123  A    between atoms: _294  and  _295
REMARK  124  A    between atoms: _297  and  _299
REMARK  125  A    between atoms: _299  and  _300
REMARK  126  A    between atoms: _299  and  _302
REMARK  127  A    between atoms: _302  and  _303
REMARK  128  A    between atoms: _303  and  _304
REMARK  129  A    between atoms: _307  and  _309
REMARK  130  A    between atoms: _309  and  _310
REMARK  131  A    between atoms: _309  and  _312
REMARK  132  A    between atoms: _312  and  _313
REMARK  133  A    between atoms: _316  and  _318
REMARK  134  A    between atoms: _318  and  _319
REMARK  135  A    between atoms: _322  and  _324
REMARK  136  A    between atoms: _324  and  _325
REMARK  137  A    between atoms: _324  and  _327
REMARK  138  A    between atoms: _327  and  _328
REMARK  139  A    between atoms: _328  and  _451
REMARK  140  A    between atoms: _329  and  _331
REMARK  141  A    between atoms: _331  and  _332
REMARK  142  A    between atoms: _331  and  _334
REMARK  143  A    between atoms: _334  and  _335
REMARK  144  A    between atoms: _335  and  _336
REMARK  145  A    between atoms: _341  and  _343
REMARK  146  A    between atoms: _343  and  _344
REMARK  147  A    between atoms: _346  and  _348
REMARK  148  A    between atoms: _348  and  _349
REMARK  149  A    between atoms: _348  and  _351
REMARK  150  A    between atoms: _351  and  _352
REMARK  151  A    between atoms: _355  and  _357
REMARK  152  A    between atoms: _357  and  _358
REMARK  153  A    between atoms: _357  and  _360
REMARK  154  A    between atoms: _360  and  _361
REMARK  155  A    between atoms: _363  and  _365
REMARK  156  A    between atoms: _365  and  _366
REMARK  157  A    between atoms: _368  and  _370
REMARK  158  A    between atoms: _370  and  _371
REMARK  159  A    between atoms: _373  and  _375
REMARK  160  A    between atoms: _375  and  _376
REMARK  161  A    between atoms: _375  and  _378
REMARK  162  A    between atoms: _378  and  _379
REMARK  163  A    between atoms: _384  and  _386
REMARK  164  A    between atoms: _386  and  _387
REMARK  165  A    between atoms: _386  and  _389
REMARK  166  A    between atoms: _389  and  _390
REMARK  167  A    between atoms: _393  and  _395
REMARK  168  A    between atoms: _395  and  _396
REMARK  169  A    between atoms: _395  and  _398
REMARK  170  A    between atoms: _401  and  _403
REMARK  171  A    between atoms: _403  and  _404
REMARK  172  A    between atoms: _403  and  _406
REMARK  173  A    between atoms: _406  and  _407
REMARK  174  A    between atoms: _409  and  _411
REMARK  175  A    between atoms: _411  and  _412
REMARK  176  A    between atoms: _411  and  _414
REMARK  177  A    between atoms: _414  and  _415
REMARK  178  A    between atoms: _425  and  _427
REMARK  179  A    between atoms: _427  and  _428
REMARK  180  A    between atoms: _430  and  _432
REMARK  181  A    between atoms: _432  and  _433
REMARK  182  A    between atoms: _432  and  _435
REMARK  183  A    between atoms: _435  and  _436
REMARK  184  A    between atoms: _436  and  _437
REMARK  185  A    between atoms: _440  and  _442
REMARK  186  A    between atoms: _442  and  _443
REMARK  187  A    between atoms: _445  and  _447
REMARK  188  A    between atoms: _447  and  _448
REMARK  189  A    between atoms: _447  and  _450
REMARK  190  A    between atoms: _450  and  _451
REMARK  191  A    between atoms: _452  and  _454
REMARK  192  A    between atoms: _454  and  _455
REMARK  193  A    between atoms: _458  and  _460
REMARK  194  A    between atoms: _460  and  _461
REMARK  195  A    between atoms: _460  and  _463
REMARK  196  A    between atoms: _463  and  _464
REMARK  197  A    between atoms: _464  and  _465
REMARK  198  A    between atoms: _465  and  _466
REMARK  199  A    between atoms: _475  and  _477
REMARK  200  A    between atoms: _477  and  _478
REMARK  201  A    between atoms: _477  and  _480
REMARK  202  A    between atoms: _480  and  _481
REMARK  203  A    between atoms: _481  and  _482
REMARK  204  A    between atoms: _482  and  _483
REMARK  205  A    between atoms: _483  and  _484
REMARK  206  A    between atoms: _488  and  _490
REMARK  207  A    between atoms: _490  and  _491
REMARK  208  A    between atoms: _490  and  _493
REMARK  209  A    between atoms: _493  and  _494
REMARK  210  A    between atoms: _499  and  _500
REMARK  211  A    between atoms: _502  and  _504
REMARK  212  A    between atoms: _504  and  _505
REMARK  213  A    between atoms: _507  and  _509
REMARK  214  A    between atoms: _509  and  _510
REMARK  215  A    between atoms: _509  and  _512
REMARK  216  A    between atoms: _512  and  _513
REMARK  217  A    between atoms: _516  and  _518
REMARK  218  A    between atoms: _518  and  _519
REMARK  219  A    between atoms: _518  and  _521
REMARK  220  A    between atoms: _521  and  _522
REMARK  221  A    between atoms: _527  and  _528
REMARK  222  A    between atoms: _530  and  _532
REMARK  223  A    between atoms: _532  and  _533
REMARK  224  A    between atoms: _532  and  _535
REMARK  225  A    between atoms: _535  and  _536
REMARK                            x       y       z     vdW  Elec       q    Type
REMARK                         _______ _______ _______ _____ _____    ______ ____
ROOT
ATOM      1  O   HOH     1      -1.254   4.146  32.016  0.00  0.00    +0.000 OA
ENDROOT
TORSDOF 0
REMARK  Name = ../refined-set-2016/2jkh/2jkh_pocket.pdb
REMARK  225 active torsions:
REMARK  status: ('A' for Active; 'I' for Inactive)
REMARK    1  A    between atoms: _1  and  _5
REMARK    2  A    between atoms: _5  and  _6
REMARK    3  A    between atoms: _5  and  _8
REMARK    4  A    between atoms: _8  and  _9
REMARK    5  A    between atoms: _12  and  _14
REMARK    6  A    between atoms: _14  and  _15
REMARK    7  A    between atoms: _14  and  _17
REMARK    8  A    between atoms: _20  and  _22
REMARK    9  A    between atoms: _22  and  _23
REMARK   10  A    between atoms: _22  and  _25
REMARK   11  A    between atoms: _25  and  _26
REMARK   12  A    between atoms: _32  and  _34
REMARK   13  A    between atoms: _34  and  _35
REMARK   14  A    between atoms: _34  and  _37
REMARK   15  A    between atoms: _37  and  _38
REMARK   16  A    between atoms: _43  and  _45
REMARK   17  A    between atoms: _45  and  _46
REMARK   18  A    between atoms: _45  and  _48
REMARK   19  A    between atoms: _48  and  _49
REMARK   20  A    between atoms: _49  and  _50
REMARK   21  A    between atoms: _55  and  _57
REMARK   22  A    between atoms: _57  and  _58
REMARK   23  A    between atoms: _57  and  _60
REMARK   24  A    between atoms: _60  and  _61
REMARK   25  A    between atoms: _67  and  _69
REMARK   26  A    between atoms: _69  and  _70
REMARK   27  A    between atoms: _69  and  _72
REMARK   28  A    between atoms: _72  and  _73
REMARK   29  A    between atoms: _76  and  _78
REMARK   30  A    between atoms: _78  and  _79
REMARK   31  A    between atoms: _78  and  _81
REMARK   32  A    between atoms: _81  and  _82
REMARK   33  A    between atoms: _82  and  _83
REMARK   34  A    between atoms: _83  and  _84
REMARK   35  A    between atoms: _84  and  _85
REMARK   36  A    between atoms: _89  and  _91
REMARK   37  A    between atoms: _91  and  _92
REMARK   38  A    between atoms: _91  and  _94
REMARK   39  A    between atoms: _94  and  _95
REMARK   40  A    between atoms: _95  and  _96
REMARK   41  A    between atoms: _99  and  _101
REMARK   42  A    between atoms: _101  and  _102
REMARK   43  A    between atoms: _101  and  _104
REMARK   44  A    between atoms: _104  and  _105
REMARK   45  A    between atoms: _108  and  _110
REMARK   46  A    between atoms: _110  and  _111
REMARK   47  A    between atoms: _110  and  _113
REMARK   48  A    between atoms: _113  and  _114
REMARK   49  A    between atoms: _119  and  _120
REMARK   50  A    between atoms: _122  and  _124
REMARK   51  A    between atoms: _124  and  _125
REMARK   52  A    between atoms: _124  and  _127
REMARK   53  A    between atoms: _127  and  _128
REMARK   54  A    between atoms: _131  and  _133
REMARK   55  A    between atoms: _133  and  _134
REMARK   56  A    between atoms: _133  and  _136
REMARK   57  A    between atoms: _136  and  _137
REMARK   58  A    between atoms: _140  and  _142
REMARK   59  A    between atoms: _142  and  _143
REMARK   60  A    between atoms: _142  and  _145
REMARK   61  A    between atoms: _148  and  _150
REMARK   62  A    between atoms: _150  and  _151
REMARK   63  A    between atoms: _150  and  _153
REMARK   64  A    between atoms: _153  and  _154
REMARK   65  A    between atoms: _154  and  _155
REMARK   66  A    between atoms: _155  and  _156
REMARK   67  A    between atoms: _165  and  _167
REMARK   68  A    between atoms: _167  and  _168
REMARK   69  A    between atoms: _167  and  _170
REMARK   70  A    between atoms: _170  and  _171
REMARK   71  A    between atoms: _176  and  _178
REMARK   72  A    between atoms: _178  and  _179
REMARK   73  A    between atoms: _178  and  _181
REMARK   74  A    between atoms: _181  and  _182
REMARK   75  A    between atoms: _182  and  _183
REMARK   76  A    between atoms: _186  and  _188
REMARK   77  A    between atoms: _188  and  _189
REMARK   78  A    between atoms: _188  and  _191
REMARK   79  A    between atoms: _191  and  _192
REMARK   80  A    between atoms: _192  and  _193
REMARK   81  A    between atoms: _193  and  _194
REMARK   82  A    between atoms: _194  and  _195
REMARK   83  A    between atoms: _199  and  _201
REMARK   84  A    between atoms: _201  and  _202
REMARK   85  A    between atoms: _204  and  _206
REMARK   86  A    between atoms: _206  and  _207
REMARK   87  A    between atoms: _206  and  _209
REMARK   88  A    between atoms: _212  and  _214
REMARK   89  A    between atoms: _214  and  _215
REMARK   90  A    between atoms: _214  and  _217
REMARK   91  A    between atoms: _217  and  _218
REMARK   92  A    between atoms: _220  and  _222
REMARK   93  A    between atoms: _222  and  _223
REMARK   94  A    between atoms: _222  and  _225
REMARK   95  A    between atoms: _225  and  _226
REMARK   96  A    between atoms: _228  and  _230
REMARK   97  A    between atoms: _230  and  _231
REMARK   98  A    between atoms: _230  and  _233
REMARK   99  A    between atoms: _233  and  _234
REMARK  100  A    between atoms: _240  and  _242
REMARK  101  A    between atoms: _242  and  _243
REMARK  102  A    between atoms: _242  and  _245
REMARK  103  A    between atoms: _245  and  _246
REMARK  104  A    between atoms: _249  and  _251
REMARK  105  A    between atoms: _251  and  _252
REMARK  106  A    between atoms: _251  and  _254
REMARK  107  A    between atoms: _254  and  _255
REMARK  108  A    between atoms: _258  and  _260
REMARK  109  A    between atoms: _260  and  _261
REMARK  110  A    between atoms: _260  and  _263
REMARK  111  A    between atoms: _263  and  _264
REMARK  112  A    between atoms: _264  and  _265
REMARK  113  A    between atoms: _267  and  _269
REMARK  114  A    between atoms: _269  and  _270
REMARK  115  A    between atoms: _269  and  _272
REMARK  116  A    between atoms: _272  and  _273
REMARK  117  A    between atoms: _279  and  _281
REMARK  118  A    between atoms: _281  and  _282
REMARK  119  A    between atoms: _281  and  _284
REMARK  120  A    between atoms: _286  and  _288
REMARK  121  A    between atoms: _288  and  _289
REMARK  122  A    between atoms: _292  and  _294
REMARK  123  A    between atoms: _294  and  _295
REMARK  124  A    between atoms: _297  and  _299
REMARK  125  A    between atoms: _299  and  _300
REMARK  126  A    between atoms: _299  and  _302
REMARK  127  A    between atoms: _302  and  _303
REMARK  128  A    between atoms: _303  and  _304
REMARK  129  A    between atoms: _307  and  _309
REMARK  130  A    between atoms: _309  and  _310
REMARK  131  A    between atoms: _309  and  _312
REMARK  132  A    between atoms: _312  and  _313
REMARK  133  A    between atoms: _316  and  _318
REMARK  134  A    between atoms: _318  and  _319
REMARK  135  A    between atoms: _322  and  _324
REMARK  136  A    between atoms: _324  and  _325
REMARK  137  A    between atoms: _324  and  _327
REMARK  138  A    between atoms: _327  and  _328
REMARK  139  A    between atoms: _328  and  _451
REMARK  140  A    between atoms: _329  and  _331
REMARK  141  A    between atoms: _331  and  _332
REMARK  142  A    between atoms: _331  and  _334
REMARK  143  A    between atoms: _334  and  _335
REMARK  144  A    between atoms: _335  and  _336
REMARK  145  A    between atoms: _341  and  _343
REMARK  146  A    between atoms: _343  and  _344
REMARK  147  A    between atoms: _346  and  _348
REMARK  148  A    between atoms: _348  and  _349
REMARK  149  A    between atoms: _348  and  _351
REMARK  150  A    between atoms: _351  and  _352
REMARK  151  A    between atoms: _355  and  _357
REMARK  152  A    between atoms: _357  and  _358
REMARK  153  A    between atoms: _357  and  _360
REMARK  154  A    between atoms: _360  and  _361
REMARK  155  A    between atoms: _363  and  _365
REMARK  156  A    between atoms: _365  and  _366
REMARK  157  A    between atoms: _368  and  _370
REMARK  158  A    between atoms: _370  and  _371
REMARK  159  A    between atoms: _373  and  _375
REMARK  160  A    between atoms: _375  and  _376
REMARK  161  A    between atoms: _375  and  _378
REMARK  162  A    between atoms: _378  and  _379
REMARK  163  A    between atoms: _384  and  _386
REMARK  164  A    between atoms: _386  and  _387
REMARK  165  A    between atoms: _386  and  _389
REMARK  166  A    between atoms: _389  and  _390
REMARK  167  A    between atoms: _393  and  _395
REMARK  168  A    between atoms: _395  and  _396
REMARK  169  A    between atoms: _395  and  _398
REMARK  170  A    between atoms: _401  and  _403
REMARK  171  A    between atoms: _403  and  _404
REMARK  172  A    between atoms: _403  and  _406
REMARK  173  A    between atoms: _406  and  _407
REMARK  174  A    between atoms: _409  and  _411
REMARK  175  A    between atoms: _411  and  _412
REMARK  176  A    between atoms: _411  and  _414
REMARK  177  A    between atoms: _414  and  _415
REMARK  178  A    between atoms: _425  and  _427
REMARK  179  A    between atoms: _427  and  _428
REMARK  180  A    between atoms: _430  and  _432
REMARK  181  A    between atoms: _432  and  _433
REMARK  182  A    between atoms: _432  and  _435
REMARK  183  A    between atoms: _435  and  _436
REMARK  184  A    between atoms: _436  and  _437
REMARK  185  A    between atoms: _440  and  _442
REMARK  186  A    between atoms: _442  and  _443
REMARK  187  A    between atoms: _445  and  _447
REMARK  188  A    between atoms: _447  and  _448
REMARK  189  A    between atoms: _447  and  _450
REMARK  190  A    between atoms: _450  and  _451
REMARK  191  A    between atoms: _452  and  _454
REMARK  192  A    between atoms: _454  and  _455
REMARK  193  A    between atoms: _458  and  _460
REMARK  194  A    between atoms: _460  and  _461
REMARK  195  A    between atoms: _460  and  _463
REMARK  196  A    between atoms: _463  and  _464
REMARK  197  A    between atoms: _464  and  _465
REMARK  198  A    between atoms: _465  and  _466
REMARK  199  A    between atoms: _475  and  _477
REMARK  200  A    between atoms: _477  and  _478
REMARK  201  A    between atoms: _477  and  _480
REMARK  202  A    between atoms: _480  and  _481
REMARK  203  A    between atoms: _481  and  _482
REMARK  204  A    between atoms: _482  and  _483
REMARK  205  A    between atoms: _483  and  _484
REMARK  206  A    between atoms: _488  and  _490
REMARK  207  A    between atoms: _490  and  _491
REMARK  208  A    between atoms: _490  and  _493
REMARK  209  A    between atoms: _493  and  _494
REMARK  210  A    between atoms: _499  and  _500
REMARK  211  A    between atoms: _502  and  _504
REMARK  212  A    between atoms: _504  and  _505
REMARK  213  A    between atoms: _507  and  _509
REMARK  214  A    between atoms: _509  and  _510
REMARK  215  A    between atoms: _509  and  _512
REMARK  216  A    between atoms: _512  and  _513
REMARK  217  A    between atoms: _516  and  _518
REMARK  218  A    between atoms: _518  and  _519
REMARK  219  A    between atoms: _518  and  _521
REMARK  220  A    between atoms: _521  and  _522
REMARK  221  A    between atoms: _527  and  _528
REMARK  222  A    between atoms: _530  and  _532
REMARK  223  A    between atoms: _532  and  _533
REMARK  224  A    between atoms: _532  and  _535
REMARK  225  A    between atoms: _535  and  _536
REMARK                            x       y       z     vdW  Elec       q    Type
REMARK                         _______ _______ _______ _____ _____    ______ ____
ROOT
ATOM      1  O   HOH     1      -9.005  12.362  23.102  0.00  0.00    +0.000 OA
ENDROOT
TORSDOF 0
REMARK  Name = ../refined-set-2016/2jkh/2jkh_pocket.pdb
REMARK  225 active torsions:
REMARK  status: ('A' for Active; 'I' for Inactive)
REMARK    1  A    between atoms: _1  and  _5
REMARK    2  A    between atoms: _5  and  _6
REMARK    3  A    between atoms: _5  and  _8
REMARK    4  A    between atoms: _8  and  _9
REMARK    5  A    between atoms: _12  and  _14
REMARK    6  A    between atoms: _14  and  _15
REMARK    7  A    between atoms: _14  and  _17
REMARK    8  A    between atoms: _20  and  _22
REMARK    9  A    between atoms: _22  and  _23
REMARK   10  A    between atoms: _22  and  _25
REMARK   11  A    between atoms: _25  and  _26
REMARK   12  A    between atoms: _32  and  _34
REMARK   13  A    between atoms: _34  and  _35
REMARK   14  A    between atoms: _34  and  _37
REMARK   15  A    between atoms: _37  and  _38
REMARK   16  A    between atoms: _43  and  _45
REMARK   17  A    between atoms: _45  and  _46
REMARK   18  A    between atoms: _45  and  _48
REMARK   19  A    between atoms: _48  and  _49
REMARK   20  A    between atoms: _49  and  _50
REMARK   21  A    between atoms: _55  and  _57
REMARK   22  A    between atoms: _57  and  _58
REMARK   23  A    between atoms: _57  and  _60
REMARK   24  A    between atoms: _60  and  _61
REMARK   25  A    between atoms: _67  and  _69
REMARK   26  A    between atoms: _69  and  _70
REMARK   27  A    between atoms: _69  and  _72
REMARK   28  A    between atoms: _72  and  _73
REMARK   29  A    between atoms: _76  and  _78
REMARK   30  A    between atoms: _78  and  _79
REMARK   31  A    between atoms: _78  and  _81
REMARK   32  A    between atoms: _81  and  _82
REMARK   33  A    between atoms: _82  and  _83
REMARK   34  A    between atoms: _83  and  _84
REMARK   35  A    between atoms: _84  and  _85
REMARK   36  A    between atoms: _89  and  _91
REMARK   37  A    between atoms: _91  and  _92
REMARK   38  A    between atoms: _91  and  _94
REMARK   39  A    between atoms: _94  and  _95
REMARK   40  A    between atoms: _95  and  _96
REMARK   41  A    between atoms: _99  and  _101
REMARK   42  A    between atoms: _101  and  _102
REMARK   43  A    between atoms: _101  and  _104
REMARK   44  A    between atoms: _104  and  _105
REMARK   45  A    between atoms: _108  and  _110
REMARK   46  A    between atoms: _110  and  _111
REMARK   47  A    between atoms: _110  and  _113
REMARK   48  A    between atoms: _113  and  _114
REMARK   49  A    between atoms: _119  and  _120
REMARK   50  A    between atoms: _122  and  _124
REMARK   51  A    between atoms: _124  and  _125
REMARK   52  A    between atoms: _124  and  _127
REMARK   53  A    between atoms: _127  and  _128
REMARK   54  A    between atoms: _131  and  _133
REMARK   55  A    between atoms: _133  and  _134
REMARK   56  A    between atoms: _133  and  _136
REMARK   57  A    between atoms: _136  and  _137
REMARK   58  A    between atoms: _140  and  _142
REMARK   59  A    between atoms: _142  and  _143
REMARK   60  A    between atoms: _142  and  _145
REMARK   61  A    between atoms: _148  and  _150
REMARK   62  A    between atoms: _150  and  _151
REMARK   63  A    between atoms: _150  and  _153
REMARK   64  A    between atoms: _153  and  _154
REMARK   65  A    between atoms: _154  and  _155
REMARK   66  A    between atoms: _155  and  _156
REMARK   67  A    between atoms: _165  and  _167
REMARK   68  A    between atoms: _167  and  _168
REMARK   69  A    between atoms: _167  and  _170
REMARK   70  A    between atoms: _170  and  _171
REMARK   71  A    between atoms: _176  and  _178
REMARK   72  A    between atoms: _178  and  _179
REMARK   73  A    between atoms: _178  and  _181
REMARK   74  A    between atoms: _181  and  _182
REMARK   75  A    between atoms: _182  and  _183
REMARK   76  A    between atoms: _186  and  _188
REMARK   77  A    between atoms: _188  and  _189
REMARK   78  A    between atoms: _188  and  _191
REMARK   79  A    between atoms: _191  and  _192
REMARK   80  A    between atoms: _192  and  _193
REMARK   81  A    between atoms: _193  and  _194
REMARK   82  A    between atoms: _194  and  _195
REMARK   83  A    between atoms: _199  and  _201
REMARK   84  A    between atoms: _201  and  _202
REMARK   85  A    between atoms: _204  and  _206
REMARK   86  A    between atoms: _206  and  _207
REMARK   87  A    between atoms: _206  and  _209
REMARK   88  A    between atoms: _212  and  _214
REMARK   89  A    between atoms: _214  and  _215
REMARK   90  A    between atoms: _214  and  _217
REMARK   91  A    between atoms: _217  and  _218
REMARK   92  A    between atoms: _220  and  _222
REMARK   93  A    between atoms: _222  and  _223
REMARK   94  A    between atoms: _222  and  _225
REMARK   95  A    between atoms: _225  and  _226
REMARK   96  A    between atoms: _228  and  _230
REMARK   97  A    between atoms: _230  and  _231
REMARK   98  A    between atoms: _230  and  _233
REMARK   99  A    between atoms: _233  and  _234
REMARK  100  A    between atoms: _240  and  _242
REMARK  101  A    between atoms: _242  and  _243
REMARK  102  A    between atoms: _242  and  _245
REMARK  103  A    between atoms: _245  and  _246
REMARK  104  A    between atoms: _249  and  _251
REMARK  105  A    between atoms: _251  and  _252
REMARK  106  A    between atoms: _251  and  _254
REMARK  107  A    between atoms: _254  and  _255
REMARK  108  A    between atoms: _258  and  _260
REMARK  109  A    between atoms: _260  and  _261
REMARK  110  A    between atoms: _260  and  _263
REMARK  111  A    between atoms: _263  and  _264
REMARK  112  A    between atoms: _264  and  _265
REMARK  113  A    between atoms: _267  and  _269
REMARK  114  A    between atoms: _269  and  _270
REMARK  115  A    between atoms: _269  and  _272
REMARK  116  A    between atoms: _272  and  _273
REMARK  117  A    between atoms: _279  and  _281
REMARK  118  A    between atoms: _281  and  _282
REMARK  119  A    between atoms: _281  and  _284
REMARK  120  A    between atoms: _286  and  _288
REMARK  121  A    between atoms: _288  and  _289
REMARK  122  A    between atoms: _292  and  _294
REMARK  123  A    between atoms: _294  and  _295
REMARK  124  A    between atoms: _297  and  _299
REMARK  125  A    between atoms: _299  and  _300
REMARK  126  A    between atoms: _299  and  _302
REMARK  127  A    between atoms: _302  and  _303
REMARK  128  A    between atoms: _303  and  _304
REMARK  129  A    between atoms: _307  and  _309
REMARK  130  A    between atoms: _309  and  _310
REMARK  131  A    between atoms: _309  and  _312
REMARK  132  A    between atoms: _312  and  _313
REMARK  133  A    between atoms: _316  and  _318
REMARK  134  A    between atoms: _318  and  _319
REMARK  135  A    between atoms: _322  and  _324
REMARK  136  A    between atoms: _324  and  _325
REMARK  137  A    between atoms: _324  and  _327
REMARK  138  A    between atoms: _327  and  _328
REMARK  139  A    between atoms: _328  and  _451
REMARK  140  A    between atoms: _329  and  _331
REMARK  141  A    between atoms: _331  and  _332
REMARK  142  A    between atoms: _331  and  _334
REMARK  143  A    between atoms: _334  and  _335
REMARK  144  A    between atoms: _335  and  _336
REMARK  145  A    between atoms: _341  and  _343
REMARK  146  A    between atoms: _343  and  _344
REMARK  147  A    between atoms: _346  and  _348
REMARK  148  A    between atoms: _348  and  _349
REMARK  149  A    between atoms: _348  and  _351
REMARK  150  A    between atoms: _351  and  _352
REMARK  151  A    between atoms: _355  and  _357
REMARK  152  A    between atoms: _357  and  _358
REMARK  153  A    between atoms: _357  and  _360
REMARK  154  A    between atoms: _360  and  _361
REMARK  155  A    between atoms: _363  and  _365
REMARK  156  A    between atoms: _365  and  _366
REMARK  157  A    between atoms: _368  and  _370
REMARK  158  A    between atoms: _370  and  _371
REMARK  159  A    between atoms: _373  and  _375
REMARK  160  A    between atoms: _375  and  _376
REMARK  161  A    between atoms: _375  and  _378
REMARK  162  A    between atoms: _378  and  _379
REMARK  163  A    between atoms: _384  and  _386
REMARK  164  A    between atoms: _386  and  _387
REMARK  165  A    between atoms: _386  and  _389
REMARK  166  A    between atoms: _389  and  _390
REMARK  167  A    between atoms: _393  and  _395
REMARK  168  A    between atoms: _395  and  _396
REMARK  169  A    between atoms: _395  and  _398
REMARK  170  A    between atoms: _401  and  _403
REMARK  171  A    between atoms: _403  and  _404
REMARK  172  A    between atoms: _403  and  _406
REMARK  173  A    between atoms: _406  and  _407
REMARK  174  A    between atoms: _409  and  _411
REMARK  175  A    between atoms: _411  and  _412
REMARK  176  A    between atoms: _411  and  _414
REMARK  177  A    between atoms: _414  and  _415
REMARK  178  A    between atoms: _425  and  _427
REMARK  179  A    between atoms: _427  and  _428
REMARK  180  A    between atoms: _430  and  _432
REMARK  181  A    between atoms: _432  and  _433
REMARK  182  A    between atoms: _432  and  _435
REMARK  183  A    between atoms: _435  and  _436
REMARK  184  A    between atoms: _436  and  _437
REMARK  185  A    between atoms: _440  and  _442
REMARK  186  A    between atoms: _442  and  _443
REMARK  187  A    between atoms: _445  and  _447
REMARK  188  A    between atoms: _447  and  _448
REMARK  189  A    between atoms: _447  and  _450
REMARK  190  A    between atoms: _450  and  _451
REMARK  191  A    between atoms: _452  and  _454
REMARK  192  A    between atoms: _454  and  _455
REMARK  193  A    between atoms: _458  and  _460
REMARK  194  A    between atoms: _460  and  _461
REMARK  195  A    between atoms: _460  and  _463
REMARK  196  A    between atoms: _463  and  _464
REMARK  197  A    between atoms: _464  and  _465
REMARK  198  A    between atoms: _465  and  _466
REMARK  199  A    between atoms: _475  and  _477
REMARK  200  A    between atoms: _477  and  _478
REMARK  201  A    between atoms: _477  and  _480
REMARK  202  A    between atoms: _480  and  _481
REMARK  203  A    between atoms: _481  and  _482
REMARK  204  A    between atoms: _482  and  _483
REMARK  205  A    between atoms: _483  and  _484
REMARK  206  A    between atoms: _488  and  _490
REMARK  207  A    between atoms: _490  and  _491
REMARK  208  A    between atoms: _490  and  _493
REMARK  209  A    between atoms: _493  and  _494
REMARK  210  A    between atoms: _499  and  _500
REMARK  211  A    between atoms: _502  and  _504
REMARK  212  A    between atoms: _504  and  _505
REMARK  213  A    between atoms: _507  and  _509
REMARK  214  A    between atoms: _509  and  _510
REMARK  215  A    between atoms: _509  and  _512
REMARK  216  A    between atoms: _512  and  _513
REMARK  217  A    between atoms: _516  and  _518
REMARK  218  A    between atoms: _518  and  _519
REMARK  219  A    between atoms: _518  and  _521
REMARK  220  A    between atoms: _521  and  _522
REMARK  221  A    between atoms: _527  and  _528
REMARK  222  A    between atoms: _530  and  _532
REMARK  223  A    between atoms: _532  and  _533
REMARK  224  A    between atoms: _532  and  _535
REMARK  225  A    between atoms: _535  and  _536
REMARK                            x       y       z     vdW  Elec       q    Type
REMARK                         _______ _______ _______ _____ _____    ______ ____
ROOT
ATOM      1  O   HOH     1      -8.668  10.407  18.822  0.00  0.00    +0.000 OA
ENDROOT
TORSDOF 0
