REMARK  Name = ../refined-set-2016/1qbr/1qbr_pocket.pdb
REMARK  232 active torsions:
REMARK  status: ('A' for Active; 'I' for Inactive)
REMARK    1  A    between atoms: _1  and  _3
REMARK    2  A    between atoms: _3  and  _4
REMARK    3  A    between atoms: _3  and  _6
REMARK    4  A    between atoms: _6  and  _7
REMARK    5  A    between atoms: _7  and  _8
REMARK    6  A    between atoms: _8  and  _9
REMARK    7  A    between atoms: _18  and  _20
REMARK    8  A    between atoms: _20  and  _21
REMARK    9  A    between atoms: _20  and  _23
REMARK   10  A    between atoms: _23  and  _24
REMARK   11  A    between atoms: _27  and  _29
REMARK   12  A    between atoms: _29  and  _30
REMARK   13  A    between atoms: _29  and  _32
REMARK   14  A    between atoms: _32  and  _33
REMARK   15  A    between atoms: _36  and  _38
REMARK   16  A    between atoms: _38  and  _39
REMARK   17  A    between atoms: _38  and  _41
REMARK   18  A    between atoms: _41  and  _42
REMARK   19  A    between atoms: _45  and  _47
REMARK   20  A    between atoms: _47  and  _48
REMARK   21  A    between atoms: _47  and  _50
REMARK   22  A    between atoms: _50  and  _51
REMARK   23  A    between atoms: _54  and  _56
REMARK   24  A    between atoms: _56  and  _57
REMARK   25  A    between atoms: _59  and  _61
REMARK   26  A    between atoms: _61  and  _62
REMARK   27  A    between atoms: _65  and  _67
REMARK   28  A    between atoms: _67  and  _68
REMARK   29  A    between atoms: _67  and  _70
REMARK   30  A    between atoms: _70  and  _71
REMARK   31  A    between atoms: _74  and  _76
REMARK   32  A    between atoms: _76  and  _77
REMARK   33  A    between atoms: _76  and  _79
REMARK   34  A    between atoms: _79  and  _80
REMARK   35  A    between atoms: _83  and  _85
REMARK   36  A    between atoms: _85  and  _86
REMARK   37  A    between atoms: _85  and  _88
REMARK   38  A    between atoms: _88  and  _89
REMARK   39  A    between atoms: _92  and  _94
REMARK   40  A    between atoms: _94  and  _95
REMARK   41  A    between atoms: _94  and  _97
REMARK   42  A    between atoms: _100  and  _102
REMARK   43  A    between atoms: _102  and  _103
REMARK   44  A    between atoms: _102  and  _105
REMARK   45  A    between atoms: _105  and  _106
REMARK   46  A    between atoms: _109  and  _111
REMARK   47  A    between atoms: _111  and  _112
REMARK   48  A    between atoms: _111  and  _114
REMARK   49  A    between atoms: _114  and  _115
REMARK   50  A    between atoms: _115  and  _116
REMARK   51  A    between atoms: _116  and  _117
REMARK   52  A    between atoms: _117  and  _118
REMARK   53  A    between atoms: _122  and  _124
REMARK   54  A    between atoms: _124  and  _125
REMARK   55  A    between atoms: _124  and  _127
REMARK   56  A    between atoms: _127  and  _128
REMARK   57  A    between atoms: _128  and  _129
REMARK   58  A    between atoms: _131  and  _133
REMARK   59  A    between atoms: _133  and  _134
REMARK   60  A    between atoms: _133  and  _136
REMARK   61  A    between atoms: _136  and  _137
REMARK   62  A    between atoms: _140  and  _142
REMARK   63  A    between atoms: _142  and  _143
REMARK   64  A    between atoms: _145  and  _147
REMARK   65  A    between atoms: _147  and  _148
REMARK   66  A    between atoms: _150  and  _152
REMARK   67  A    between atoms: _152  and  _153
REMARK   68  A    between atoms: _152  and  _155
REMARK   69  A    between atoms: _155  and  _156
REMARK   70  A    between atoms: _159  and  _161
REMARK   71  A    between atoms: _161  and  _162
REMARK   72  A    between atoms: _164  and  _166
REMARK   73  A    between atoms: _166  and  _167
REMARK   74  A    between atoms: _169  and  _171
REMARK   75  A    between atoms: _171  and  _172
REMARK   76  A    between atoms: _171  and  _174
REMARK   77  A    between atoms: _174  and  _175
REMARK   78  A    between atoms: _181  and  _183
REMARK   79  A    between atoms: _183  and  _184
REMARK   80  A    between atoms: _183  and  _186
REMARK   81  A    between atoms: _186  and  _187
REMARK   82  A    between atoms: _190  and  _192
REMARK   83  A    between atoms: _192  and  _193
REMARK   84  A    between atoms: _192  and  _195
REMARK   85  A    between atoms: _195  and  _196
REMARK   86  A    between atoms: _200  and  _201
REMARK   87  A    between atoms: _206  and  _208
REMARK   88  A    between atoms: _208  and  _209
REMARK   89  A    between atoms: _208  and  _211
REMARK   90  A    between atoms: _211  and  _212
REMARK   91  A    between atoms: _216  and  _217
REMARK   92  A    between atoms: _222  and  _224
REMARK   93  A    between atoms: _224  and  _225
REMARK   94  A    between atoms: _224  and  _227
REMARK   95  A    between atoms: _230  and  _232
REMARK   96  A    between atoms: _232  and  _233
REMARK   97  A    between atoms: _232  and  _235
REMARK   98  A    between atoms: _235  and  _236
REMARK   99  A    between atoms: _241  and  _243
REMARK  100  A    between atoms: _243  and  _244
REMARK  101  A    between atoms: _243  and  _246
REMARK  102  A    between atoms: _246  and  _247
REMARK  103  A    between atoms: _250  and  _252
REMARK  104  A    between atoms: _252  and  _253
REMARK  105  A    between atoms: _252  and  _255
REMARK  106  A    between atoms: _255  and  _256
REMARK  107  A    between atoms: _259  and  _261
REMARK  108  A    between atoms: _261  and  _262
REMARK  109  A    between atoms: _264  and  _266
REMARK  110  A    between atoms: _266  and  _267
REMARK  111  A    between atoms: _266  and  _269
REMARK  112  A    between atoms: _269  and  _270
REMARK  113  A    between atoms: _270  and  _271
REMARK  114  A    between atoms: _271  and  _272
REMARK  115  A    between atoms: _281  and  _283
REMARK  116  A    between atoms: _283  and  _284
REMARK  117  A    between atoms: _283  and  _286
REMARK  118  A    between atoms: _286  and  _287
REMARK  119  A    between atoms: _292  and  _294
REMARK  120  A    between atoms: _294  and  _295
REMARK  121  A    between atoms: _294  and  _297
REMARK  122  A    between atoms: _297  and  _298
REMARK  123  A    between atoms: _298  and  _299
REMARK  124  A    between atoms: _299  and  _300
REMARK  125  A    between atoms: _309  and  _311
REMARK  126  A    between atoms: _311  and  _312
REMARK  127  A    between atoms: _311  and  _314
REMARK  128  A    between atoms: _314  and  _315
REMARK  129  A    between atoms: _318  and  _320
REMARK  130  A    between atoms: _320  and  _321
REMARK  131  A    between atoms: _320  and  _323
REMARK  132  A    between atoms: _323  and  _324
REMARK  133  A    between atoms: _327  and  _329
REMARK  134  A    between atoms: _329  and  _330
REMARK  135  A    between atoms: _329  and  _332
REMARK  136  A    between atoms: _332  and  _333
REMARK  137  A    between atoms: _336  and  _338
REMARK  138  A    between atoms: _338  and  _339
REMARK  139  A    between atoms: _338  and  _341
REMARK  140  A    between atoms: _341  and  _342
REMARK  141  A    between atoms: _345  and  _347
REMARK  142  A    between atoms: _347  and  _348
REMARK  143  A    between atoms: _350  and  _352
REMARK  144  A    between atoms: _352  and  _353
REMARK  145  A    between atoms: _356  and  _358
REMARK  146  A    between atoms: _358  and  _359
REMARK  147  A    between atoms: _358  and  _361
REMARK  148  A    between atoms: _361  and  _362
REMARK  149  A    between atoms: _365  and  _367
REMARK  150  A    between atoms: _367  and  _368
REMARK  151  A    between atoms: _367  and  _370
REMARK  152  A    between atoms: _370  and  _371
REMARK  153  A    between atoms: _374  and  _376
REMARK  154  A    between atoms: _376  and  _377
REMARK  155  A    between atoms: _376  and  _379
REMARK  156  A    between atoms: _379  and  _380
REMARK  157  A    between atoms: _383  and  _385
REMARK  158  A    between atoms: _385  and  _386
REMARK  159  A    between atoms: _385  and  _388
REMARK  160  A    between atoms: _391  and  _393
REMARK  161  A    between atoms: _393  and  _394
REMARK  162  A    between atoms: _393  and  _396
REMARK  163  A    between atoms: _396  and  _397
REMARK  164  A    between atoms: _397  and  _398
REMARK  165  A    between atoms: _398  and  _399
REMARK  166  A    between atoms: _399  and  _400
REMARK  167  A    between atoms: _404  and  _406
REMARK  168  A    between atoms: _406  and  _407
REMARK  169  A    between atoms: _406  and  _409
REMARK  170  A    between atoms: _409  and  _410
REMARK  171  A    between atoms: _410  and  _411
REMARK  172  A    between atoms: _413  and  _415
REMARK  173  A    between atoms: _415  and  _416
REMARK  174  A    between atoms: _415  and  _418
REMARK  175  A    between atoms: _418  and  _419
REMARK  176  A    between atoms: _422  and  _424
REMARK  177  A    between atoms: _424  and  _425
REMARK  178  A    between atoms: _427  and  _429
REMARK  179  A    between atoms: _429  and  _430
REMARK  180  A    between atoms: _432  and  _434
REMARK  181  A    between atoms: _434  and  _435
REMARK  182  A    between atoms: _434  and  _437
REMARK  183  A    between atoms: _437  and  _438
REMARK  184  A    between atoms: _441  and  _443
REMARK  185  A    between atoms: _443  and  _444
REMARK  186  A    between atoms: _446  and  _448
REMARK  187  A    between atoms: _448  and  _449
REMARK  188  A    between atoms: _451  and  _453
REMARK  189  A    between atoms: _453  and  _454
REMARK  190  A    between atoms: _453  and  _456
REMARK  191  A    between atoms: _456  and  _457
REMARK  192  A    between atoms: _463  and  _465
REMARK  193  A    between atoms: _465  and  _466
REMARK  194  A    between atoms: _465  and  _468
REMARK  195  A    between atoms: _468  and  _469
REMARK  196  A    between atoms: _472  and  _474
REMARK  197  A    between atoms: _474  and  _475
REMARK  198  A    between atoms: _474  and  _477
REMARK  199  A    between atoms: _477  and  _478
REMARK  200  A    between atoms: _482  and  _483
REMARK  201  A    between atoms: _488  and  _490
REMARK  202  A    between atoms: _490  and  _491
REMARK  203  A    between atoms: _490  and  _493
REMARK  204  A    between atoms: _493  and  _494
REMARK  205  A    between atoms: _498  and  _499
REMARK  206  A    between atoms: _504  and  _506
REMARK  207  A    between atoms: _506  and  _507
REMARK  208  A    between atoms: _506  and  _509
REMARK  209  A    between atoms: _512  and  _514
REMARK  210  A    between atoms: _514  and  _515
REMARK  211  A    between atoms: _514  and  _517
REMARK  212  A    between atoms: _517  and  _518
REMARK  213  A    between atoms: _523  and  _525
REMARK  214  A    between atoms: _525  and  _526
REMARK  215  A    between atoms: _525  and  _528
REMARK  216  A    between atoms: _528  and  _529
REMARK  217  A    between atoms: _532  and  _534
REMARK  218  A    between atoms: _534  and  _535
REMARK  219  A    between atoms: _534  and  _537
REMARK  220  A    between atoms: _537  and  _538
REMARK  221  A    between atoms: _541  and  _543
REMARK  222  A    between atoms: _543  and  _544
REMARK  223  A    between atoms: _546  and  _548
REMARK  224  A    between atoms: _548  and  _549
REMARK  225  A    between atoms: _548  and  _551
REMARK  226  A    between atoms: _551  and  _552
REMARK  227  A    between atoms: _552  and  _553
REMARK  228  A    between atoms: _553  and  _554
REMARK  229  A    between atoms: _563  and  _565
REMARK  230  A    between atoms: _565  and  _566
REMARK  231  A    between atoms: _565  and  _568
REMARK  232  A    between atoms: _568  and  _569
REMARK                            x       y       z     vdW  Elec       q    Type
REMARK                         _______ _______ _______ _____ _____    ______ ____
ROOT
ATOM      1  NE  ARG A   1      -4.935  24.063  23.657  0.00  0.00    -0.265 N 
ATOM      2  CZ  ARG A   1      -4.332  22.902  23.965  0.00  0.00    +0.342 C 
ATOM      3  NH2 ARG A   1      -5.074  21.817  24.200  0.00  0.00    -0.292 N 
ATOM      4 HH21 ARG A   1      -4.615  20.915  24.439  0.00  0.00    +0.255 HD
ATOM      5 HH22 ARG A   1      -6.111  21.874  24.144  0.00  0.00    +0.255 HD
ATOM      6  NH1 ARG A   1      -2.998  22.798  24.043  0.00  0.00    -0.292 N 
ATOM      7 HH11 ARG A   1      -2.561  21.886  24.284  0.00  0.00    +0.255 HD
ATOM      8 HH12 ARG A   1      -2.400  23.630  23.863  0.00  0.00    +0.255 HD
ATOM      9  HE  ARG A   1      -5.973  24.126  23.658  0.00  0.00    +0.259 HD
ENDROOT
BRANCH   1  10
ATOM     10  CD  ARG A   1      -4.130  25.242  23.320  0.00  0.00    +0.174 C 
BRANCH  10  11
ATOM     11  CG  ARG A   1      -4.952  26.239  22.514  0.00  0.00    +0.045 C 
BRANCH  11  12
ATOM     12  CB  ARG A   1      -5.387  27.396  23.405  0.00  0.00    +0.029 C 
BRANCH  12  13
ATOM     13  CA  ARG A   1      -6.539  28.286  22.920  0.00  0.00    +0.133 C 
BRANCH  13  14
ATOM     14  N   ARG A   1      -6.254  28.975  21.645  0.00  0.00    -0.239 NA
ATOM     15  H   ARG A   1      -5.311  28.946  21.207  0.00  0.00    +0.142 HD
ENDBRANCH  13  14
BRANCH  13  16
ATOM     16  C   ARG A   1      -6.703  29.309  24.017  0.00  0.00    +0.224 C 
ATOM     17  O   ARG A   1      -5.932  30.253  24.079  0.00  0.00    -0.287 OA
ENDBRANCH  13  16
ENDBRANCH  12  13
ENDBRANCH  11  12
ENDBRANCH  10  11
ENDBRANCH   1  10
TORSDOF 6
REMARK  Name = ../refined-set-2016/1qbr/1qbr_pocket.pdb
REMARK  232 active torsions:
REMARK  status: ('A' for Active; 'I' for Inactive)
REMARK    1  A    between atoms: _1  and  _3
REMARK    2  A    between atoms: _3  and  _4
REMARK    3  A    between atoms: _3  and  _6
REMARK    4  A    between atoms: _6  and  _7
REMARK    5  A    between atoms: _7  and  _8
REMARK    6  A    between atoms: _8  and  _9
REMARK    7  A    between atoms: _18  and  _20
REMARK    8  A    between atoms: _20  and  _21
REMARK    9  A    between atoms: _20  and  _23
REMARK   10  A    between atoms: _23  and  _24
REMARK   11  A    between atoms: _27  and  _29
REMARK   12  A    between atoms: _29  and  _30
REMARK   13  A    between atoms: _29  and  _32
REMARK   14  A    between atoms: _32  and  _33
REMARK   15  A    between atoms: _36  and  _38
REMARK   16  A    between atoms: _38  and  _39
REMARK   17  A    between atoms: _38  and  _41
REMARK   18  A    between atoms: _41  and  _42
REMARK   19  A    between atoms: _45  and  _47
REMARK   20  A    between atoms: _47  and  _48
REMARK   21  A    between atoms: _47  and  _50
REMARK   22  A    between atoms: _50  and  _51
REMARK   23  A    between atoms: _54  and  _56
REMARK   24  A    between atoms: _56  and  _57
REMARK   25  A    between atoms: _59  and  _61
REMARK   26  A    between atoms: _61  and  _62
REMARK   27  A    between atoms: _65  and  _67
REMARK   28  A    between atoms: _67  and  _68
REMARK   29  A    between atoms: _67  and  _70
REMARK   30  A    between atoms: _70  and  _71
REMARK   31  A    between atoms: _74  and  _76
REMARK   32  A    between atoms: _76  and  _77
REMARK   33  A    between atoms: _76  and  _79
REMARK   34  A    between atoms: _79  and  _80
REMARK   35  A    between atoms: _83  and  _85
REMARK   36  A    between atoms: _85  and  _86
REMARK   37  A    between atoms: _85  and  _88
REMARK   38  A    between atoms: _88  and  _89
REMARK   39  A    between atoms: _92  and  _94
REMARK   40  A    between atoms: _94  and  _95
REMARK   41  A    between atoms: _94  and  _97
REMARK   42  A    between atoms: _100  and  _102
REMARK   43  A    between atoms: _102  and  _103
REMARK   44  A    between atoms: _102  and  _105
REMARK   45  A    between atoms: _105  and  _106
REMARK   46  A    between atoms: _109  and  _111
REMARK   47  A    between atoms: _111  and  _112
REMARK   48  A    between atoms: _111  and  _114
REMARK   49  A    between atoms: _114  and  _115
REMARK   50  A    between atoms: _115  and  _116
REMARK   51  A    between atoms: _116  and  _117
REMARK   52  A    between atoms: _117  and  _118
REMARK   53  A    between atoms: _122  and  _124
REMARK   54  A    between atoms: _124  and  _125
REMARK   55  A    between atoms: _124  and  _127
REMARK   56  A    between atoms: _127  and  _128
REMARK   57  A    between atoms: _128  and  _129
REMARK   58  A    between atoms: _131  and  _133
REMARK   59  A    between atoms: _133  and  _134
REMARK   60  A    between atoms: _133  and  _136
REMARK   61  A    between atoms: _136  and  _137
REMARK   62  A    between atoms: _140  and  _142
REMARK   63  A    between atoms: _142  and  _143
REMARK   64  A    between atoms: _145  and  _147
REMARK   65  A    between atoms: _147  and  _148
REMARK   66  A    between atoms: _150  and  _152
REMARK   67  A    between atoms: _152  and  _153
REMARK   68  A    between atoms: _152  and  _155
REMARK   69  A    between atoms: _155  and  _156
REMARK   70  A    between atoms: _159  and  _161
REMARK   71  A    between atoms: _161  and  _162
REMARK   72  A    between atoms: _164  and  _166
REMARK   73  A    between atoms: _166  and  _167
REMARK   74  A    between atoms: _169  and  _171
REMARK   75  A    between atoms: _171  and  _172
REMARK   76  A    between atoms: _171  and  _174
REMARK   77  A    between atoms: _174  and  _175
REMARK   78  A    between atoms: _181  and  _183
REMARK   79  A    between atoms: _183  and  _184
REMARK   80  A    between atoms: _183  and  _186
REMARK   81  A    between atoms: _186  and  _187
REMARK   82  A    between atoms: _190  and  _192
REMARK   83  A    between atoms: _192  and  _193
REMARK   84  A    between atoms: _192  and  _195
REMARK   85  A    between atoms: _195  and  _196
REMARK   86  A    between atoms: _200  and  _201
REMARK   87  A    between atoms: _206  and  _208
REMARK   88  A    between atoms: _208  and  _209
REMARK   89  A    between atoms: _208  and  _211
REMARK   90  A    between atoms: _211  and  _212
REMARK   91  A    between atoms: _216  and  _217
REMARK   92  A    between atoms: _222  and  _224
REMARK   93  A    between atoms: _224  and  _225
REMARK   94  A    between atoms: _224  and  _227
REMARK   95  A    between atoms: _230  and  _232
REMARK   96  A    between atoms: _232  and  _233
REMARK   97  A    between atoms: _232  and  _235
REMARK   98  A    between atoms: _235  and  _236
REMARK   99  A    between atoms: _241  and  _243
REMARK  100  A    between atoms: _243  and  _244
REMARK  101  A    between atoms: _243  and  _246
REMARK  102  A    between atoms: _246  and  _247
REMARK  103  A    between atoms: _250  and  _252
REMARK  104  A    between atoms: _252  and  _253
REMARK  105  A    between atoms: _252  and  _255
REMARK  106  A    between atoms: _255  and  _256
REMARK  107  A    between atoms: _259  and  _261
REMARK  108  A    between atoms: _261  and  _262
REMARK  109  A    between atoms: _264  and  _266
REMARK  110  A    between atoms: _266  and  _267
REMARK  111  A    between atoms: _266  and  _269
REMARK  112  A    between atoms: _269  and  _270
REMARK  113  A    between atoms: _270  and  _271
REMARK  114  A    between atoms: _271  and  _272
REMARK  115  A    between atoms: _281  and  _283
REMARK  116  A    between atoms: _283  and  _284
REMARK  117  A    between atoms: _283  and  _286
REMARK  118  A    between atoms: _286  and  _287
REMARK  119  A    between atoms: _292  and  _294
REMARK  120  A    between atoms: _294  and  _295
REMARK  121  A    between atoms: _294  and  _297
REMARK  122  A    between atoms: _297  and  _298
REMARK  123  A    between atoms: _298  and  _299
REMARK  124  A    between atoms: _299  and  _300
REMARK  125  A    between atoms: _309  and  _311
REMARK  126  A    between atoms: _311  and  _312
REMARK  127  A    between atoms: _311  and  _314
REMARK  128  A    between atoms: _314  and  _315
REMARK  129  A    between atoms: _318  and  _320
REMARK  130  A    between atoms: _320  and  _321
REMARK  131  A    between atoms: _320  and  _323
REMARK  132  A    between atoms: _323  and  _324
REMARK  133  A    between atoms: _327  and  _329
REMARK  134  A    between atoms: _329  and  _330
REMARK  135  A    between atoms: _329  and  _332
REMARK  136  A    between atoms: _332  and  _333
REMARK  137  A    between atoms: _336  and  _338
REMARK  138  A    between atoms: _338  and  _339
REMARK  139  A    between atoms: _338  and  _341
REMARK  140  A    between atoms: _341  and  _342
REMARK  141  A    between atoms: _345  and  _347
REMARK  142  A    between atoms: _347  and  _348
REMARK  143  A    between atoms: _350  and  _352
REMARK  144  A    between atoms: _352  and  _353
REMARK  145  A    between atoms: _356  and  _358
REMARK  146  A    between atoms: _358  and  _359
REMARK  147  A    between atoms: _358  and  _361
REMARK  148  A    between atoms: _361  and  _362
REMARK  149  A    between atoms: _365  and  _367
REMARK  150  A    between atoms: _367  and  _368
REMARK  151  A    between atoms: _367  and  _370
REMARK  152  A    between atoms: _370  and  _371
REMARK  153  A    between atoms: _374  and  _376
REMARK  154  A    between atoms: _376  and  _377
REMARK  155  A    between atoms: _376  and  _379
REMARK  156  A    between atoms: _379  and  _380
REMARK  157  A    between atoms: _383  and  _385
REMARK  158  A    between atoms: _385  and  _386
REMARK  159  A    between atoms: _385  and  _388
REMARK  160  A    between atoms: _391  and  _393
REMARK  161  A    between atoms: _393  and  _394
REMARK  162  A    between atoms: _393  and  _396
REMARK  163  A    between atoms: _396  and  _397
REMARK  164  A    between atoms: _397  and  _398
REMARK  165  A    between atoms: _398  and  _399
REMARK  166  A    between atoms: _399  and  _400
REMARK  167  A    between atoms: _404  and  _406
REMARK  168  A    between atoms: _406  and  _407
REMARK  169  A    between atoms: _406  and  _409
REMARK  170  A    between atoms: _409  and  _410
REMARK  171  A    between atoms: _410  and  _411
REMARK  172  A    between atoms: _413  and  _415
REMARK  173  A    between atoms: _415  and  _416
REMARK  174  A    between atoms: _415  and  _418
REMARK  175  A    between atoms: _418  and  _419
REMARK  176  A    between atoms: _422  and  _424
REMARK  177  A    between atoms: _424  and  _425
REMARK  178  A    between atoms: _427  and  _429
REMARK  179  A    between atoms: _429  and  _430
REMARK  180  A    between atoms: _432  and  _434
REMARK  181  A    between atoms: _434  and  _435
REMARK  182  A    between atoms: _434  and  _437
REMARK  183  A    between atoms: _437  and  _438
REMARK  184  A    between atoms: _441  and  _443
REMARK  185  A    between atoms: _443  and  _444
REMARK  186  A    between atoms: _446  and  _448
REMARK  187  A    between atoms: _448  and  _449
REMARK  188  A    between atoms: _451  and  _453
REMARK  189  A    between atoms: _453  and  _454
REMARK  190  A    between atoms: _453  and  _456
REMARK  191  A    between atoms: _456  and  _457
REMARK  192  A    between atoms: _463  and  _465
REMARK  193  A    between atoms: _465  and  _466
REMARK  194  A    between atoms: _465  and  _468
REMARK  195  A    between atoms: _468  and  _469
REMARK  196  A    between atoms: _472  and  _474
REMARK  197  A    between atoms: _474  and  _475
REMARK  198  A    between atoms: _474  and  _477
REMARK  199  A    between atoms: _477  and  _478
REMARK  200  A    between atoms: _482  and  _483
REMARK  201  A    between atoms: _488  and  _490
REMARK  202  A    between atoms: _490  and  _491
REMARK  203  A    between atoms: _490  and  _493
REMARK  204  A    between atoms: _493  and  _494
REMARK  205  A    between atoms: _498  and  _499
REMARK  206  A    between atoms: _504  and  _506
REMARK  207  A    between atoms: _506  and  _507
REMARK  208  A    between atoms: _506  and  _509
REMARK  209  A    between atoms: _512  and  _514
REMARK  210  A    between atoms: _514  and  _515
REMARK  211  A    between atoms: _514  and  _517
REMARK  212  A    between atoms: _517  and  _518
REMARK  213  A    between atoms: _523  and  _525
REMARK  214  A    between atoms: _525  and  _526
REMARK  215  A    between atoms: _525  and  _528
REMARK  216  A    between atoms: _528  and  _529
REMARK  217  A    between atoms: _532  and  _534
REMARK  218  A    between atoms: _534  and  _535
REMARK  219  A    between atoms: _534  and  _537
REMARK  220  A    between atoms: _537  and  _538
REMARK  221  A    between atoms: _541  and  _543
REMARK  222  A    between atoms: _543  and  _544
REMARK  223  A    between atoms: _546  and  _548
REMARK  224  A    between atoms: _548  and  _549
REMARK  225  A    between atoms: _548  and  _551
REMARK  226  A    between atoms: _551  and  _552
REMARK  227  A    between atoms: _552  and  _553
REMARK  228  A    between atoms: _553  and  _554
REMARK  229  A    between atoms: _563  and  _565
REMARK  230  A    between atoms: _565  and  _566
REMARK  231  A    between atoms: _565  and  _568
REMARK  232  A    between atoms: _568  and  _569
REMARK                            x       y       z     vdW  Elec       q    Type
REMARK                         _______ _______ _______ _____ _____    ______ ____
ROOT
ATOM      1  C   ALA A   6     -13.165  19.491  33.934  0.00  0.00    +0.241 C 
ATOM      2  N   ASP A   7     -13.475  18.407  34.631  0.00  0.00    -0.297 N 
ATOM      3  H   ASP A   7     -13.260  17.460  34.258  0.00  0.00    +0.150 HD
ATOM      4  O   ALA A   6     -13.354  20.619  34.342  0.00  0.00    -0.273 OA
ENDROOT
BRANCH   1   5
ATOM      5  CA  ALA A   6     -12.561  19.249  32.583  0.00  0.00    +0.149 C 
ATOM      6  CB  ALA A   6     -11.129  19.789  32.560  0.00  0.00    +0.031 C 
BRANCH   5   8
ATOM      7  C   GLY A   5     -14.155  19.255  30.838  0.00  0.00    +0.243 C 
ATOM      8  N   ALA A   6     -13.366  19.964  31.620  0.00  0.00    -0.297 N 
ATOM      9  H   ALA A   6     -13.324  21.001  31.546  0.00  0.00    +0.150 HD
ATOM     10  O   GLY A   5     -14.231  18.048  30.934  0.00  0.00    -0.273 OA
BRANCH   7  11
ATOM     11  CA  GLY A   5     -14.897  20.021  29.776  0.00  0.00    +0.176 C 
BRANCH  11  14
ATOM     12  C   THR A   4     -15.305  22.199  30.563  0.00  0.00    +0.243 C 
ATOM     13  O   THR A   4     -16.119  21.711  31.323  0.00  0.00    -0.273 OA
ATOM     14  N   GLY A   5     -14.597  21.447  29.734  0.00  0.00    -0.295 N 
ATOM     15  H   GLY A   5     -13.877  21.846  29.098  0.00  0.00    +0.150 HD
BRANCH  12  16
ATOM     16  CA  THR A   4     -15.030  23.695  30.476  0.00  0.00    +0.176 C 
BRANCH  16  19
ATOM     17  C   ASP A   3     -12.656  23.751  30.835  0.00  0.00    +0.241 C 
ATOM     18  O   ASP A   3     -12.799  23.133  31.874  0.00  0.00    -0.273 OA
ATOM     19  N   THR A   4     -13.679  24.049  30.040  0.00  0.00    -0.295 N 
ATOM     20  H   THR A   4     -13.522  24.523  29.128  0.00  0.00    +0.150 HD
BRANCH  17  21
ATOM     21  CA  ASP A   3     -11.289  24.150  30.329  0.00  0.00    +0.160 C 
BRANCH  21  23
ATOM     22  C   LEU A   2     -10.172  26.241  30.063  0.00  0.00    +0.241 C 
ATOM     23  N   ASP A   3     -10.725  25.369  30.902  0.00  0.00    -0.297 N 
ATOM     24  H   ASP A   3     -10.754  25.549  31.926  0.00  0.00    +0.150 HD
ATOM     25  O   LEU A   2     -10.342  26.187  28.851  0.00  0.00    -0.273 OA
BRANCH  22  26
ATOM     26  CA  LEU A   2      -9.275  27.297  30.669  0.00  0.00    +0.149 C 
BRANCH  26  29
ATOM     27  C   LEU A   1      -7.094  26.332  30.498  0.00  0.00    +0.238 C 
ATOM     28  O   LEU A   1      -7.328  25.631  31.472  0.00  0.00    -0.274 OA
ATOM     29  N   LEU A   2      -7.947  27.249  30.058  0.00  0.00    -0.297 N 
ATOM     30  H   LEU A   2      -7.680  27.912  29.303  0.00  0.00    +0.150 HD
BRANCH  27  31
ATOM     31  CA  LEU A   1      -5.793  26.202  29.730  0.00  0.00    +0.145 C 
BRANCH  31  32
ATOM     32  N   LEU A   1      -4.675  26.238  30.654  0.00  0.00    -0.238 NA
ATOM     33  H   LEU A   1      -4.343  25.355  31.092  0.00  0.00    +0.142 HD
ENDBRANCH  31  32
BRANCH  31  34
ATOM     34  CB  LEU A   1      -5.692  24.846  29.007  0.00  0.00    +0.026 C 
BRANCH  34  35
ATOM     35  CG  LEU A   1      -6.705  24.584  27.887  0.00  0.00    +0.002 C 
ATOM     36  CD2 LEU A   1      -6.546  23.157  27.398  0.00  0.00    +0.000 C 
ATOM     37  CD1 LEU A   1      -6.526  25.555  26.724  0.00  0.00    +0.000 C 
ENDBRANCH  34  35
ENDBRANCH  31  34
ENDBRANCH  27  31
ENDBRANCH  26  29
BRANCH  26  38
ATOM     38  CB  LEU A   2      -9.864  28.682  30.432  0.00  0.00    +0.029 C 
BRANCH  38  39
ATOM     39  CG  LEU A   2      -9.041  29.813  31.029  0.00  0.00    +0.002 C 
ATOM     40  CD2 LEU A   2      -8.929  29.697  32.539  0.00  0.00    +0.000 C 
ATOM     41  CD1 LEU A   2      -9.701  31.137  30.664  0.00  0.00    +0.000 C 
ENDBRANCH  38  39
ENDBRANCH  26  38
ENDBRANCH  22  26
ENDBRANCH  21  23
BRANCH  21  42
ATOM     42  CB  ASP A   3     -10.330  23.012  30.647  0.00  0.00    +0.143 C 
BRANCH  42  43
ATOM     43  CG  ASP A   3     -10.384  21.953  29.595  0.00  0.00    +0.367 C 
ATOM     44  OD2 ASP A   3     -11.457  21.420  29.336  0.00  0.00    -0.246 OA
ATOM     45  OD1 ASP A   3      -9.346  21.668  29.023  0.00  0.00    -0.246 OA
ENDBRANCH  42  43
ENDBRANCH  21  42
ENDBRANCH  17  21
ENDBRANCH  16  19
BRANCH  16  46
ATOM     46  CB  THR A   4     -16.022  24.379  29.535  0.00  0.00    +0.137 C 
ATOM     47  CG2 THR A   4     -15.911  25.894  29.637  0.00  0.00    +0.034 C 
BRANCH  46  48
ATOM     48  OG1 THR A   4     -15.776  24.004  28.176  0.00  0.00    -0.382 OA
ATOM     49  HG1 THR A   4     -15.872  23.023  28.083  0.00  0.00    +0.210 HD
ENDBRANCH  46  48
ENDBRANCH  16  46
ENDBRANCH  12  16
ENDBRANCH  11  14
ENDBRANCH   7  11
ENDBRANCH   5   8
ENDBRANCH   1   5
BRANCH   2  50
ATOM     50  CA  ASP A   7     -14.124  18.563  35.933  0.00  0.00    +0.160 C 
BRANCH  50  51
ATOM     51  C   ASP A   7     -13.226  19.075  37.034  0.00  0.00    +0.241 C 
ATOM     52  O   ASP A   7     -13.698  19.719  37.946  0.00  0.00    -0.273 OA
ATOM     53  N   ASP A   8     -11.936  18.768  36.945  0.00  0.00    -0.297 N 
ATOM     54  H   ASP A   8     -11.593  18.230  36.124  0.00  0.00    +0.150 HD
BRANCH  53  55
ATOM     55  CA  ASP A   8     -10.990  19.177  37.988  0.00  0.00    +0.160 C 
BRANCH  55  56
ATOM     56  C   ASP A   8      -9.859  19.946  37.330  0.00  0.00    +0.241 C 
ATOM     57  N   THR A   9      -9.043  20.538  38.159  0.00  0.00    -0.295 N 
ATOM     58  H   THR A   9      -9.278  20.555  39.172  0.00  0.00    +0.150 HD
ATOM     59  O   ASP A   8      -9.710  19.975  36.125  0.00  0.00    -0.273 OA
BRANCH  57  60
ATOM     60  CA  THR A   9      -7.815  21.175  37.710  0.00  0.00    +0.176 C 
BRANCH  60  61
ATOM     61  C   THR A   9      -6.640  20.250  37.961  0.00  0.00    +0.243 C 
ATOM     62  O   THR A   9      -6.493  19.657  39.025  0.00  0.00    -0.273 OA
ATOM     63  N   VAL A  10      -5.822  20.135  36.935  0.00  0.00    -0.297 N 
ATOM     64  H   VAL A  10      -6.032  20.637  36.049  0.00  0.00    +0.150 HD
BRANCH  63  65
ATOM     65  CA  VAL A  10      -4.631  19.313  37.033  0.00  0.00    +0.149 C 
BRANCH  65  66
ATOM     66  C   VAL A  10      -3.523  20.099  36.397  0.00  0.00    +0.241 C 
ATOM     67  N   LEU A  11      -2.456  20.218  37.160  0.00  0.00    -0.298 N 
ATOM     68  H   LEU A  11      -2.447  19.784  38.105  0.00  0.00    +0.150 HD
ATOM     69  O   VAL A  10      -3.651  20.609  35.294  0.00  0.00    -0.273 OA
BRANCH  67  70
ATOM     70  CA  LEU A  11      -1.301  20.944  36.696  0.00  0.00    +0.137 C 
BRANCH  70  71
ATOM     71  C   LEU A  11      -0.227  19.955  36.479  0.00  0.00    +0.227 C 
ATOM     72  O   LEU A  11      -0.228  18.864  37.031  0.00  0.00    -0.286 OA
ENDBRANCH  70  71
BRANCH  70  73
ATOM     73  CB  LEU A  11      -0.808  21.922  37.768  0.00  0.00    +0.028 C 
BRANCH  73  74
ATOM     74  CG  LEU A  11      -1.778  23.003  38.256  0.00  0.00    +0.002 C 
ATOM     75  CD2 LEU A  11      -0.960  24.083  38.966  0.00  0.00    +0.000 C 
ATOM     76  CD1 LEU A  11      -2.607  23.655  37.150  0.00  0.00    +0.000 C 
ENDBRANCH  73  74
ENDBRANCH  70  73
ENDBRANCH  67  70
ENDBRANCH  65  66
BRANCH  65  77
ATOM     77  CB  VAL A  10      -4.810  17.925  36.354  0.00  0.00    +0.027 C 
ATOM     78  CG2 VAL A  10      -3.537  17.073  36.461  0.00  0.00    +0.002 C 
ATOM     79  CG1 VAL A  10      -5.267  17.979  34.905  0.00  0.00    +0.002 C 
ENDBRANCH  65  77
ENDBRANCH  63  65
ENDBRANCH  60  61
BRANCH  60  80
ATOM     80  CB  THR A   9      -7.687  22.494  38.505  0.00  0.00    +0.137 C 
ATOM     81  CG2 THR A   9      -6.377  23.237  38.285  0.00  0.00    +0.034 C 
BRANCH  80  82
ATOM     82  OG1 THR A   9      -8.786  23.331  38.132  0.00  0.00    -0.382 OA
ATOM     83  HG1 THR A   9      -9.636  22.875  38.353  0.00  0.00    +0.210 HD
ENDBRANCH  80  82
ENDBRANCH  60  80
ENDBRANCH  57  60
ENDBRANCH  55  56
BRANCH  55  84
ATOM     84  CB  ASP A   8     -10.316  17.961  38.639  0.00  0.00    +0.143 C 
BRANCH  84  85
ATOM     85  CG  ASP A   8     -11.188  17.133  39.550  0.00  0.00    +0.367 C 
ATOM     86  OD2 ASP A   8     -11.835  17.680  40.435  0.00  0.00    -0.246 OA
ATOM     87  OD1 ASP A   8     -11.195  15.912  39.396  0.00  0.00    -0.246 OA
ENDBRANCH  84  85
ENDBRANCH  55  84
ENDBRANCH  53  55
ENDBRANCH  50  51
BRANCH  50  88
ATOM     88  CB  ASP A   7     -14.705  17.231  36.424  0.00  0.00    +0.143 C 
BRANCH  88  89
ATOM     89  CG  ASP A   7     -15.718  16.633  35.470  0.00  0.00    +0.367 C 
ATOM     90  OD2 ASP A   7     -15.751  15.408  35.387  0.00  0.00    -0.246 OA
ATOM     91  OD1 ASP A   7     -16.464  17.366  34.816  0.00  0.00    -0.246 OA
ENDBRANCH  88  89
ENDBRANCH  50  88
ENDBRANCH   2  50
TORSDOF 39
REMARK  Name = ../refined-set-2016/1qbr/1qbr_pocket.pdb
REMARK  232 active torsions:
REMARK  status: ('A' for Active; 'I' for Inactive)
REMARK    1  A    between atoms: _1  and  _3
REMARK    2  A    between atoms: _3  and  _4
REMARK    3  A    between atoms: _3  and  _6
REMARK    4  A    between atoms: _6  and  _7
REMARK    5  A    between atoms: _7  and  _8
REMARK    6  A    between atoms: _8  and  _9
REMARK    7  A    between atoms: _18  and  _20
REMARK    8  A    between atoms: _20  and  _21
REMARK    9  A    between atoms: _20  and  _23
REMARK   10  A    between atoms: _23  and  _24
REMARK   11  A    between atoms: _27  and  _29
REMARK   12  A    between atoms: _29  and  _30
REMARK   13  A    between atoms: _29  and  _32
REMARK   14  A    between atoms: _32  and  _33
REMARK   15  A    between atoms: _36  and  _38
REMARK   16  A    between atoms: _38  and  _39
REMARK   17  A    between atoms: _38  and  _41
REMARK   18  A    between atoms: _41  and  _42
REMARK   19  A    between atoms: _45  and  _47
REMARK   20  A    between atoms: _47  and  _48
REMARK   21  A    between atoms: _47  and  _50
REMARK   22  A    between atoms: _50  and  _51
REMARK   23  A    between atoms: _54  and  _56
REMARK   24  A    between atoms: _56  and  _57
REMARK   25  A    between atoms: _59  and  _61
REMARK   26  A    between atoms: _61  and  _62
REMARK   27  A    between atoms: _65  and  _67
REMARK   28  A    between atoms: _67  and  _68
REMARK   29  A    between atoms: _67  and  _70
REMARK   30  A    between atoms: _70  and  _71
REMARK   31  A    between atoms: _74  and  _76
REMARK   32  A    between atoms: _76  and  _77
REMARK   33  A    between atoms: _76  and  _79
REMARK   34  A    between atoms: _79  and  _80
REMARK   35  A    between atoms: _83  and  _85
REMARK   36  A    between atoms: _85  and  _86
REMARK   37  A    between atoms: _85  and  _88
REMARK   38  A    between atoms: _88  and  _89
REMARK   39  A    between atoms: _92  and  _94
REMARK   40  A    between atoms: _94  and  _95
REMARK   41  A    between atoms: _94  and  _97
REMARK   42  A    between atoms: _100  and  _102
REMARK   43  A    between atoms: _102  and  _103
REMARK   44  A    between atoms: _102  and  _105
REMARK   45  A    between atoms: _105  and  _106
REMARK   46  A    between atoms: _109  and  _111
REMARK   47  A    between atoms: _111  and  _112
REMARK   48  A    between atoms: _111  and  _114
REMARK   49  A    between atoms: _114  and  _115
REMARK   50  A    between atoms: _115  and  _116
REMARK   51  A    between atoms: _116  and  _117
REMARK   52  A    between atoms: _117  and  _118
REMARK   53  A    between atoms: _122  and  _124
REMARK   54  A    between atoms: _124  and  _125
REMARK   55  A    between atoms: _124  and  _127
REMARK   56  A    between atoms: _127  and  _128
REMARK   57  A    between atoms: _128  and  _129
REMARK   58  A    between atoms: _131  and  _133
REMARK   59  A    between atoms: _133  and  _134
REMARK   60  A    between atoms: _133  and  _136
REMARK   61  A    between atoms: _136  and  _137
REMARK   62  A    between atoms: _140  and  _142
REMARK   63  A    between atoms: _142  and  _143
REMARK   64  A    between atoms: _145  and  _147
REMARK   65  A    between atoms: _147  and  _148
REMARK   66  A    between atoms: _150  and  _152
REMARK   67  A    between atoms: _152  and  _153
REMARK   68  A    between atoms: _152  and  _155
REMARK   69  A    between atoms: _155  and  _156
REMARK   70  A    between atoms: _159  and  _161
REMARK   71  A    between atoms: _161  and  _162
REMARK   72  A    between atoms: _164  and  _166
REMARK   73  A    between atoms: _166  and  _167
REMARK   74  A    between atoms: _169  and  _171
REMARK   75  A    between atoms: _171  and  _172
REMARK   76  A    between atoms: _171  and  _174
REMARK   77  A    between atoms: _174  and  _175
REMARK   78  A    between atoms: _181  and  _183
REMARK   79  A    between atoms: _183  and  _184
REMARK   80  A    between atoms: _183  and  _186
REMARK   81  A    between atoms: _186  and  _187
REMARK   82  A    between atoms: _190  and  _192
REMARK   83  A    between atoms: _192  and  _193
REMARK   84  A    between atoms: _192  and  _195
REMARK   85  A    between atoms: _195  and  _196
REMARK   86  A    between atoms: _200  and  _201
REMARK   87  A    between atoms: _206  and  _208
REMARK   88  A    between atoms: _208  and  _209
REMARK   89  A    between atoms: _208  and  _211
REMARK   90  A    between atoms: _211  and  _212
REMARK   91  A    between atoms: _216  and  _217
REMARK   92  A    between atoms: _222  and  _224
REMARK   93  A    between atoms: _224  and  _225
REMARK   94  A    between atoms: _224  and  _227
REMARK   95  A    between atoms: _230  and  _232
REMARK   96  A    between atoms: _232  and  _233
REMARK   97  A    between atoms: _232  and  _235
REMARK   98  A    between atoms: _235  and  _236
REMARK   99  A    between atoms: _241  and  _243
REMARK  100  A    between atoms: _243  and  _244
REMARK  101  A    between atoms: _243  and  _246
REMARK  102  A    between atoms: _246  and  _247
REMARK  103  A    between atoms: _250  and  _252
REMARK  104  A    between atoms: _252  and  _253
REMARK  105  A    between atoms: _252  and  _255
REMARK  106  A    between atoms: _255  and  _256
REMARK  107  A    between atoms: _259  and  _261
REMARK  108  A    between atoms: _261  and  _262
REMARK  109  A    between atoms: _264  and  _266
REMARK  110  A    between atoms: _266  and  _267
REMARK  111  A    between atoms: _266  and  _269
REMARK  112  A    between atoms: _269  and  _270
REMARK  113  A    between atoms: _270  and  _271
REMARK  114  A    between atoms: _271  and  _272
REMARK  115  A    between atoms: _281  and  _283
REMARK  116  A    between atoms: _283  and  _284
REMARK  117  A    between atoms: _283  and  _286
REMARK  118  A    between atoms: _286  and  _287
REMARK  119  A    between atoms: _292  and  _294
REMARK  120  A    between atoms: _294  and  _295
REMARK  121  A    between atoms: _294  and  _297
REMARK  122  A    between atoms: _297  and  _298
REMARK  123  A    between atoms: _298  and  _299
REMARK  124  A    between atoms: _299  and  _300
REMARK  125  A    between atoms: _309  and  _311
REMARK  126  A    between atoms: _311  and  _312
REMARK  127  A    between atoms: _311  and  _314
REMARK  128  A    between atoms: _314  and  _315
REMARK  129  A    between atoms: _318  and  _320
REMARK  130  A    between atoms: _320  and  _321
REMARK  131  A    between atoms: _320  and  _323
REMARK  132  A    between atoms: _323  and  _324
REMARK  133  A    between atoms: _327  and  _329
REMARK  134  A    between atoms: _329  and  _330
REMARK  135  A    between atoms: _329  and  _332
REMARK  136  A    between atoms: _332  and  _333
REMARK  137  A    between atoms: _336  and  _338
REMARK  138  A    between atoms: _338  and  _339
REMARK  139  A    between atoms: _338  and  _341
REMARK  140  A    between atoms: _341  and  _342
REMARK  141  A    between atoms: _345  and  _347
REMARK  142  A    between atoms: _347  and  _348
REMARK  143  A    between atoms: _350  and  _352
REMARK  144  A    between atoms: _352  and  _353
REMARK  145  A    between atoms: _356  and  _358
REMARK  146  A    between atoms: _358  and  _359
REMARK  147  A    between atoms: _358  and  _361
REMARK  148  A    between atoms: _361  and  _362
REMARK  149  A    between atoms: _365  and  _367
REMARK  150  A    between atoms: _367  and  _368
REMARK  151  A    between atoms: _367  and  _370
REMARK  152  A    between atoms: _370  and  _371
REMARK  153  A    between atoms: _374  and  _376
REMARK  154  A    between atoms: _376  and  _377
REMARK  155  A    between atoms: _376  and  _379
REMARK  156  A    between atoms: _379  and  _380
REMARK  157  A    between atoms: _383  and  _385
REMARK  158  A    between atoms: _385  and  _386
REMARK  159  A    between atoms: _385  and  _388
REMARK  160  A    between atoms: _391  and  _393
REMARK  161  A    between atoms: _393  and  _394
REMARK  162  A    between atoms: _393  and  _396
REMARK  163  A    between atoms: _396  and  _397
REMARK  164  A    between atoms: _397  and  _398
REMARK  165  A    between atoms: _398  and  _399
REMARK  166  A    between atoms: _399  and  _400
REMARK  167  A    between atoms: _404  and  _406
REMARK  168  A    between atoms: _406  and  _407
REMARK  169  A    between atoms: _406  and  _409
REMARK  170  A    between atoms: _409  and  _410
REMARK  171  A    between atoms: _410  and  _411
REMARK  172  A    between atoms: _413  and  _415
REMARK  173  A    between atoms: _415  and  _416
REMARK  174  A    between atoms: _415  and  _418
REMARK  175  A    between atoms: _418  and  _419
REMARK  176  A    between atoms: _422  and  _424
REMARK  177  A    between atoms: _424  and  _425
REMARK  178  A    between atoms: _427  and  _429
REMARK  179  A    between atoms: _429  and  _430
REMARK  180  A    between atoms: _432  and  _434
REMARK  181  A    between atoms: _434  and  _435
REMARK  182  A    between atoms: _434  and  _437
REMARK  183  A    between atoms: _437  and  _438
REMARK  184  A    between atoms: _441  and  _443
REMARK  185  A    between atoms: _443  and  _444
REMARK  186  A    between atoms: _446  and  _448
REMARK  187  A    between atoms: _448  and  _449
REMARK  188  A    between atoms: _451  and  _453
REMARK  189  A    between atoms: _453  and  _454
REMARK  190  A    between atoms: _453  and  _456
REMARK  191  A    between atoms: _456  and  _457
REMARK  192  A    between atoms: _463  and  _465
REMARK  193  A    between atoms: _465  and  _466
REMARK  194  A    between atoms: _465  and  _468
REMARK  195  A    between atoms: _468  and  _469
REMARK  196  A    between atoms: _472  and  _474
REMARK  197  A    between atoms: _474  and  _475
REMARK  198  A    between atoms: _474  and  _477
REMARK  199  A    between atoms: _477  and  _478
REMARK  200  A    between atoms: _482  and  _483
REMARK  201  A    between atoms: _488  and  _490
REMARK  202  A    between atoms: _490  and  _491
REMARK  203  A    between atoms: _490  and  _493
REMARK  204  A    between atoms: _493  and  _494
REMARK  205  A    between atoms: _498  and  _499
REMARK  206  A    between atoms: _504  and  _506
REMARK  207  A    between atoms: _506  and  _507
REMARK  208  A    between atoms: _506  and  _509
REMARK  209  A    between atoms: _512  and  _514
REMARK  210  A    between atoms: _514  and  _515
REMARK  211  A    between atoms: _514  and  _517
REMARK  212  A    between atoms: _517  and  _518
REMARK  213  A    between atoms: _523  and  _525
REMARK  214  A    between atoms: _525  and  _526
REMARK  215  A    between atoms: _525  and  _528
REMARK  216  A    between atoms: _528  and  _529
REMARK  217  A    between atoms: _532  and  _534
REMARK  218  A    between atoms: _534  and  _535
REMARK  219  A    between atoms: _534  and  _537
REMARK  220  A    between atoms: _537  and  _538
REMARK  221  A    between atoms: _541  and  _543
REMARK  222  A    between atoms: _543  and  _544
REMARK  223  A    between atoms: _546  and  _548
REMARK  224  A    between atoms: _548  and  _549
REMARK  225  A    between atoms: _548  and  _551
REMARK  226  A    between atoms: _551  and  _552
REMARK  227  A    between atoms: _552  and  _553
REMARK  228  A    between atoms: _553  and  _554
REMARK  229  A    between atoms: _563  and  _565
REMARK  230  A    between atoms: _565  and  _566
REMARK  231  A    between atoms: _565  and  _568
REMARK  232  A    between atoms: _568  and  _569
REMARK                            x       y       z     vdW  Elec       q    Type
REMARK                         _______ _______ _______ _____ _____    ______ ____
ROOT
ATOM      1  C   GLY A   5      -9.445  10.639  29.004  0.00  0.00    +0.243 C 
ATOM      2  O   GLY A   5      -9.803   9.472  29.014  0.00  0.00    -0.273 OA
ATOM      3  N   ILE A   6      -9.131  11.278  27.897  0.00  0.00    -0.297 N 
ATOM      4  H   ILE A   6      -8.850  12.279  27.916  0.00  0.00    +0.150 HD
ENDROOT
BRANCH   3   5
ATOM      5  CA  ILE A   6      -9.189  10.538  26.644  0.00  0.00    +0.149 C 
BRANCH   5   6
ATOM      6  C   ILE A   6      -8.047   9.541  26.607  0.00  0.00    +0.241 C 
ATOM      7  O   ILE A   6      -6.895   9.873  26.793  0.00  0.00    -0.273 OA
ATOM      8  N   GLY A   7      -8.355   8.289  26.355  0.00  0.00    -0.295 N 
ATOM      9  H   GLY A   7      -9.331   7.944  26.257  0.00  0.00    +0.150 HD
BRANCH   8  10
ATOM     10  CA  GLY A   7      -7.177   7.435  26.228  0.00  0.00    +0.176 C 
BRANCH  10  11
ATOM     11  C   GLY A   7      -6.384   7.220  27.522  0.00  0.00    +0.243 C 
ATOM     12  N   GLY A   8      -7.045   7.410  28.654  0.00  0.00    -0.295 N 
ATOM     13  H   GLY A   8      -7.889   8.012  28.735  0.00  0.00    +0.150 HD
ATOM     14  O   GLY A   7      -5.226   6.825  27.504  0.00  0.00    -0.273 OA
BRANCH  12  15
ATOM     15  CA  GLY A   8      -6.464   6.687  29.766  0.00  0.00    +0.176 C 
BRANCH  15  16
ATOM     16  C   GLY A   8      -6.611   7.366  31.075  0.00  0.00    +0.243 C 
ATOM     17  N   PHE A   9      -5.902   6.811  32.041  0.00  0.00    -0.297 N 
ATOM     18  H   PHE A   9      -5.241   6.044  31.803  0.00  0.00    +0.150 HD
ATOM     19  O   GLY A   8      -7.358   8.314  31.217  0.00  0.00    -0.273 OA
BRANCH  17  20
ATOM     20  CA  PHE A   9      -6.014   7.234  33.417  0.00  0.00    +0.153 C 
BRANCH  20  21
ATOM     21  C   PHE A   9      -4.623   7.560  33.865  0.00  0.00    +0.241 C 
ATOM     22  N   ILE A  10      -4.461   8.778  34.333  0.00  0.00    -0.298 N 
ATOM     23  H   ILE A  10      -5.188   9.513  34.221  0.00  0.00    +0.150 HD
ATOM     24  O   PHE A   9      -3.719   6.739  33.790  0.00  0.00    -0.273 OA
BRANCH  22  25
ATOM     25  CA  ILE A  10      -3.197   9.036  35.021  0.00  0.00    +0.137 C 
BRANCH  25  26
ATOM     26  C   ILE A  10      -3.398   9.073  36.526  0.00  0.00    +0.227 C 
ATOM     27  O   ILE A  10      -4.490   9.264  37.046  0.00  0.00    -0.286 OA
ENDBRANCH  25  26
BRANCH  25  28
ATOM     28  CB  ILE A  10      -2.531  10.329  34.509  0.00  0.00    +0.026 C 
ATOM     29  CG2 ILE A  10      -1.951  10.053  33.121  0.00  0.00    +0.002 C 
BRANCH  28  30
ATOM     30  CG1 ILE A  10      -3.450  11.563  34.519  0.00  0.00    +0.002 C 
ATOM     31  CD1 ILE A  10      -2.752  12.918  34.443  0.00  0.00    +0.000 C 
ENDBRANCH  28  30
ENDBRANCH  25  28
ENDBRANCH  22  25
ENDBRANCH  20  21
BRANCH  20  32
ATOM     32  CB  PHE A   9      -6.523   6.059  34.277  0.00  0.00    +0.055 C 
BRANCH  32  33
ATOM     33  CG  PHE A   9      -8.034   5.876  34.198  0.00  0.00    -0.020 A 
ATOM     34  CD2 PHE A   9      -8.840   6.288  35.286  0.00  0.00    -0.004 A 
ATOM     35  CE2 PHE A   9     -10.245   6.199  35.214  0.00  0.00    -0.000 A 
ATOM     36  CZ  PHE A   9     -10.845   5.687  34.049  0.00  0.00    -0.000 A 
ATOM     37  CE1 PHE A   9     -10.056   5.258  32.957  0.00  0.00    -0.000 A 
ATOM     38  CD1 PHE A   9      -8.643   5.350  33.034  0.00  0.00    -0.004 A 
ENDBRANCH  32  33
ENDBRANCH  20  32
ENDBRANCH  17  20
ENDBRANCH  15  16
ENDBRANCH  12  15
ENDBRANCH  10  11
ENDBRANCH   8  10
ENDBRANCH   5   6
BRANCH   5  39
ATOM     39  CB  ILE A   6      -9.148  11.555  25.466  0.00  0.00    +0.027 C 
ATOM     40  CG2 ILE A   6      -8.110  11.308  24.359  0.00  0.00    +0.002 C 
BRANCH  39  41
ATOM     41  CG1 ILE A   6     -10.509  11.554  24.782  0.00  0.00    +0.002 C 
ATOM     42  CD1 ILE A   6     -10.622  12.470  23.568  0.00  0.00    +0.000 C 
ENDBRANCH  39  41
ENDBRANCH   5  39
ENDBRANCH   3   5
BRANCH   1  43
ATOM     43  CA  GLY A   5      -9.336  11.440  30.264  0.00  0.00    +0.176 C 
BRANCH  43  46
ATOM     44  C   GLY A   4      -9.490  10.835  32.593  0.00  0.00    +0.243 C 
ATOM     45  O   GLY A   4      -9.475  11.992  32.977  0.00  0.00    -0.273 OA
ATOM     46  N   GLY A   5      -9.498  10.485  31.337  0.00  0.00    -0.295 N 
ATOM     47  H   GLY A   5      -9.626   9.481  31.098  0.00  0.00    +0.150 HD
BRANCH  44  48
ATOM     48  CA  GLY A   4      -9.473   9.661  33.545  0.00  0.00    +0.176 C 
BRANCH  48  51
ATOM     49  C   ILE A   3      -8.208   9.979  35.567  0.00  0.00    +0.241 C 
ATOM     50  O   ILE A   3      -7.211   9.445  35.118  0.00  0.00    -0.273 OA
ATOM     51  N   GLY A   4      -9.350  10.094  34.931  0.00  0.00    -0.295 N 
ATOM     52  H   GLY A   4     -10.174  10.498  35.420  0.00  0.00    +0.150 HD
BRANCH  49  53
ATOM     53  CA  ILE A   3      -8.219  10.572  36.927  0.00  0.00    +0.149 C 
BRANCH  53  56
ATOM     54  C   MET A   2      -7.480   9.509  38.885  0.00  0.00    +0.241 C 
ATOM     55  O   MET A   2      -8.583   9.649  39.382  0.00  0.00    -0.273 OA
ATOM     56  N   ILE A   3      -7.153   9.963  37.702  0.00  0.00    -0.297 N 
ATOM     57  H   ILE A   3      -6.182   9.891  37.337  0.00  0.00    +0.150 HD
BRANCH  54  58
ATOM     58  CA  MET A   2      -6.403   8.828  39.650  0.00  0.00    +0.149 C 
BRANCH  58  61
ATOM     59  C   LYS A   1      -5.557   9.564  41.776  0.00  0.00    +0.238 C 
ATOM     60  O   LYS A   1      -4.423   9.585  41.327  0.00  0.00    -0.274 OA
ATOM     61  N   MET A   2      -6.595   9.179  41.052  0.00  0.00    -0.297 N 
ATOM     62  H   MET A   2      -7.541   9.127  41.480  0.00  0.00    +0.150 HD
BRANCH  59  63
ATOM     63  CA  LYS A   1      -5.820   9.978  43.206  0.00  0.00    +0.145 C 
BRANCH  63  64
ATOM     64  N   LYS A   1      -4.507  10.137  43.808  0.00  0.00    -0.238 NA
ATOM     65  H   LYS A   1      -3.745  10.581  43.257  0.00  0.00    +0.142 HD
ENDBRANCH  63  64
BRANCH  63  66
ATOM     66  CB  LYS A   1      -6.541  11.333  43.280  0.00  0.00    +0.026 C 
BRANCH  66  67
ATOM     67  CG  LYS A   1      -8.027  11.287  42.924  0.00  0.00    -0.000 C 
BRANCH  67  68
ATOM     68  CD  LYS A   1      -8.571  12.612  42.382  0.00  0.00    -0.024 C 
BRANCH  68  69
ATOM     69  CE  LYS A   1      -9.989  12.430  41.828  0.00  0.00    -0.086 C 
BRANCH  69  70
ATOM     70  NZ  LYS A   1     -10.505  13.729  41.390  0.00  0.00    +0.380 N 
ATOM     71  HZ1 LYS A   1     -10.527  14.383  42.199  0.00  0.00    -0.089 HD
ATOM     72  HZ2 LYS A   1     -11.467  13.609  41.013  0.00  0.00    -0.089 HD
ATOM     73  HZ3 LYS A   1      -9.886  14.114  40.648  0.00  0.00    -0.089 HD
ENDBRANCH  69  70
ENDBRANCH  68  69
ENDBRANCH  67  68
ENDBRANCH  66  67
ENDBRANCH  63  66
ENDBRANCH  59  63
ENDBRANCH  58  61
BRANCH  58  74
ATOM     74  CB  MET A   2      -6.574   7.335  39.470  0.00  0.00    +0.041 C 
BRANCH  74  75
ATOM     75  CG  MET A   2      -5.290   6.616  39.878  0.00  0.00    +0.060 C 
BRANCH  75  76
ATOM     76  SD  MET A   2      -5.486   4.831  39.839  0.00  0.00    -0.139 S 
ATOM     77  CE  MET A   2      -5.882   4.578  41.586  0.00  0.00    +0.069 C 
ENDBRANCH  75  76
ENDBRANCH  74  75
ENDBRANCH  58  74
ENDBRANCH  54  58
ENDBRANCH  53  56
BRANCH  53  78
ATOM     78  CB  ILE A   3      -8.049  12.083  36.788  0.00  0.00    +0.027 C 
ATOM     79  CG2 ILE A   3      -8.463  12.789  38.080  0.00  0.00    +0.002 C 
BRANCH  78  80
ATOM     80  CG1 ILE A   3      -6.651  12.493  36.311  0.00  0.00    +0.002 C 
ATOM     81  CD1 ILE A   3      -6.589  13.941  35.833  0.00  0.00    +0.000 C 
ENDBRANCH  78  80
ENDBRANCH  53  78
ENDBRANCH  49  53
ENDBRANCH  48  51
ENDBRANCH  44  48
ENDBRANCH  43  46
ENDBRANCH   1  43
TORSDOF 36
REMARK  Name = ../refined-set-2016/1qbr/1qbr_pocket.pdb
REMARK  232 active torsions:
REMARK  status: ('A' for Active; 'I' for Inactive)
REMARK    1  A    between atoms: _1  and  _3
REMARK    2  A    between atoms: _3  and  _4
REMARK    3  A    between atoms: _3  and  _6
REMARK    4  A    between atoms: _6  and  _7
REMARK    5  A    between atoms: _7  and  _8
REMARK    6  A    between atoms: _8  and  _9
REMARK    7  A    between atoms: _18  and  _20
REMARK    8  A    between atoms: _20  and  _21
REMARK    9  A    between atoms: _20  and  _23
REMARK   10  A    between atoms: _23  and  _24
REMARK   11  A    between atoms: _27  and  _29
REMARK   12  A    between atoms: _29  and  _30
REMARK   13  A    between atoms: _29  and  _32
REMARK   14  A    between atoms: _32  and  _33
REMARK   15  A    between atoms: _36  and  _38
REMARK   16  A    between atoms: _38  and  _39
REMARK   17  A    between atoms: _38  and  _41
REMARK   18  A    between atoms: _41  and  _42
REMARK   19  A    between atoms: _45  and  _47
REMARK   20  A    between atoms: _47  and  _48
REMARK   21  A    between atoms: _47  and  _50
REMARK   22  A    between atoms: _50  and  _51
REMARK   23  A    between atoms: _54  and  _56
REMARK   24  A    between atoms: _56  and  _57
REMARK   25  A    between atoms: _59  and  _61
REMARK   26  A    between atoms: _61  and  _62
REMARK   27  A    between atoms: _65  and  _67
REMARK   28  A    between atoms: _67  and  _68
REMARK   29  A    between atoms: _67  and  _70
REMARK   30  A    between atoms: _70  and  _71
REMARK   31  A    between atoms: _74  and  _76
REMARK   32  A    between atoms: _76  and  _77
REMARK   33  A    between atoms: _76  and  _79
REMARK   34  A    between atoms: _79  and  _80
REMARK   35  A    between atoms: _83  and  _85
REMARK   36  A    between atoms: _85  and  _86
REMARK   37  A    between atoms: _85  and  _88
REMARK   38  A    between atoms: _88  and  _89
REMARK   39  A    between atoms: _92  and  _94
REMARK   40  A    between atoms: _94  and  _95
REMARK   41  A    between atoms: _94  and  _97
REMARK   42  A    between atoms: _100  and  _102
REMARK   43  A    between atoms: _102  and  _103
REMARK   44  A    between atoms: _102  and  _105
REMARK   45  A    between atoms: _105  and  _106
REMARK   46  A    between atoms: _109  and  _111
REMARK   47  A    between atoms: _111  and  _112
REMARK   48  A    between atoms: _111  and  _114
REMARK   49  A    between atoms: _114  and  _115
REMARK   50  A    between atoms: _115  and  _116
REMARK   51  A    between atoms: _116  and  _117
REMARK   52  A    between atoms: _117  and  _118
REMARK   53  A    between atoms: _122  and  _124
REMARK   54  A    between atoms: _124  and  _125
REMARK   55  A    between atoms: _124  and  _127
REMARK   56  A    between atoms: _127  and  _128
REMARK   57  A    between atoms: _128  and  _129
REMARK   58  A    between atoms: _131  and  _133
REMARK   59  A    between atoms: _133  and  _134
REMARK   60  A    between atoms: _133  and  _136
REMARK   61  A    between atoms: _136  and  _137
REMARK   62  A    between atoms: _140  and  _142
REMARK   63  A    between atoms: _142  and  _143
REMARK   64  A    between atoms: _145  and  _147
REMARK   65  A    between atoms: _147  and  _148
REMARK   66  A    between atoms: _150  and  _152
REMARK   67  A    between atoms: _152  and  _153
REMARK   68  A    between atoms: _152  and  _155
REMARK   69  A    between atoms: _155  and  _156
REMARK   70  A    between atoms: _159  and  _161
REMARK   71  A    between atoms: _161  and  _162
REMARK   72  A    between atoms: _164  and  _166
REMARK   73  A    between atoms: _166  and  _167
REMARK   74  A    between atoms: _169  and  _171
REMARK   75  A    between atoms: _171  and  _172
REMARK   76  A    between atoms: _171  and  _174
REMARK   77  A    between atoms: _174  and  _175
REMARK   78  A    between atoms: _181  and  _183
REMARK   79  A    between atoms: _183  and  _184
REMARK   80  A    between atoms: _183  and  _186
REMARK   81  A    between atoms: _186  and  _187
REMARK   82  A    between atoms: _190  and  _192
REMARK   83  A    between atoms: _192  and  _193
REMARK   84  A    between atoms: _192  and  _195
REMARK   85  A    between atoms: _195  and  _196
REMARK   86  A    between atoms: _200  and  _201
REMARK   87  A    between atoms: _206  and  _208
REMARK   88  A    between atoms: _208  and  _209
REMARK   89  A    between atoms: _208  and  _211
REMARK   90  A    between atoms: _211  and  _212
REMARK   91  A    between atoms: _216  and  _217
REMARK   92  A    between atoms: _222  and  _224
REMARK   93  A    between atoms: _224  and  _225
REMARK   94  A    between atoms: _224  and  _227
REMARK   95  A    between atoms: _230  and  _232
REMARK   96  A    between atoms: _232  and  _233
REMARK   97  A    between atoms: _232  and  _235
REMARK   98  A    between atoms: _235  and  _236
REMARK   99  A    between atoms: _241  and  _243
REMARK  100  A    between atoms: _243  and  _244
REMARK  101  A    between atoms: _243  and  _246
REMARK  102  A    between atoms: _246  and  _247
REMARK  103  A    between atoms: _250  and  _252
REMARK  104  A    between atoms: _252  and  _253
REMARK  105  A    between atoms: _252  and  _255
REMARK  106  A    between atoms: _255  and  _256
REMARK  107  A    between atoms: _259  and  _261
REMARK  108  A    between atoms: _261  and  _262
REMARK  109  A    between atoms: _264  and  _266
REMARK  110  A    between atoms: _266  and  _267
REMARK  111  A    between atoms: _266  and  _269
REMARK  112  A    between atoms: _269  and  _270
REMARK  113  A    between atoms: _270  and  _271
REMARK  114  A    between atoms: _271  and  _272
REMARK  115  A    between atoms: _281  and  _283
REMARK  116  A    between atoms: _283  and  _284
REMARK  117  A    between atoms: _283  and  _286
REMARK  118  A    between atoms: _286  and  _287
REMARK  119  A    between atoms: _292  and  _294
REMARK  120  A    between atoms: _294  and  _295
REMARK  121  A    between atoms: _294  and  _297
REMARK  122  A    between atoms: _297  and  _298
REMARK  123  A    between atoms: _298  and  _299
REMARK  124  A    between atoms: _299  and  _300
REMARK  125  A    between atoms: _309  and  _311
REMARK  126  A    between atoms: _311  and  _312
REMARK  127  A    between atoms: _311  and  _314
REMARK  128  A    between atoms: _314  and  _315
REMARK  129  A    between atoms: _318  and  _320
REMARK  130  A    between atoms: _320  and  _321
REMARK  131  A    between atoms: _320  and  _323
REMARK  132  A    between atoms: _323  and  _324
REMARK  133  A    between atoms: _327  and  _329
REMARK  134  A    between atoms: _329  and  _330
REMARK  135  A    between atoms: _329  and  _332
REMARK  136  A    between atoms: _332  and  _333
REMARK  137  A    between atoms: _336  and  _338
REMARK  138  A    between atoms: _338  and  _339
REMARK  139  A    between atoms: _338  and  _341
REMARK  140  A    between atoms: _341  and  _342
REMARK  141  A    between atoms: _345  and  _347
REMARK  142  A    between atoms: _347  and  _348
REMARK  143  A    between atoms: _350  and  _352
REMARK  144  A    between atoms: _352  and  _353
REMARK  145  A    between atoms: _356  and  _358
REMARK  146  A    between atoms: _358  and  _359
REMARK  147  A    between atoms: _358  and  _361
REMARK  148  A    between atoms: _361  and  _362
REMARK  149  A    between atoms: _365  and  _367
REMARK  150  A    between atoms: _367  and  _368
REMARK  151  A    between atoms: _367  and  _370
REMARK  152  A    between atoms: _370  and  _371
REMARK  153  A    between atoms: _374  and  _376
REMARK  154  A    between atoms: _376  and  _377
REMARK  155  A    between atoms: _376  and  _379
REMARK  156  A    between atoms: _379  and  _380
REMARK  157  A    between atoms: _383  and  _385
REMARK  158  A    between atoms: _385  and  _386
REMARK  159  A    between atoms: _385  and  _388
REMARK  160  A    between atoms: _391  and  _393
REMARK  161  A    between atoms: _393  and  _394
REMARK  162  A    between atoms: _393  and  _396
REMARK  163  A    between atoms: _396  and  _397
REMARK  164  A    between atoms: _397  and  _398
REMARK  165  A    between atoms: _398  and  _399
REMARK  166  A    between atoms: _399  and  _400
REMARK  167  A    between atoms: _404  and  _406
REMARK  168  A    between atoms: _406  and  _407
REMARK  169  A    between atoms: _406  and  _409
REMARK  170  A    between atoms: _409  and  _410
REMARK  171  A    between atoms: _410  and  _411
REMARK  172  A    between atoms: _413  and  _415
REMARK  173  A    between atoms: _415  and  _416
REMARK  174  A    between atoms: _415  and  _418
REMARK  175  A    between atoms: _418  and  _419
REMARK  176  A    between atoms: _422  and  _424
REMARK  177  A    between atoms: _424  and  _425
REMARK  178  A    between atoms: _427  and  _429
REMARK  179  A    between atoms: _429  and  _430
REMARK  180  A    between atoms: _432  and  _434
REMARK  181  A    between atoms: _434  and  _435
REMARK  182  A    between atoms: _434  and  _437
REMARK  183  A    between atoms: _437  and  _438
REMARK  184  A    between atoms: _441  and  _443
REMARK  185  A    between atoms: _443  and  _444
REMARK  186  A    between atoms: _446  and  _448
REMARK  187  A    between atoms: _448  and  _449
REMARK  188  A    between atoms: _451  and  _453
REMARK  189  A    between atoms: _453  and  _454
REMARK  190  A    between atoms: _453  and  _456
REMARK  191  A    between atoms: _456  and  _457
REMARK  192  A    between atoms: _463  and  _465
REMARK  193  A    between atoms: _465  and  _466
REMARK  194  A    between atoms: _465  and  _468
REMARK  195  A    between atoms: _468  and  _469
REMARK  196  A    between atoms: _472  and  _474
REMARK  197  A    between atoms: _474  and  _475
REMARK  198  A    between atoms: _474  and  _477
REMARK  199  A    between atoms: _477  and  _478
REMARK  200  A    between atoms: _482  and  _483
REMARK  201  A    between atoms: _488  and  _490
REMARK  202  A    between atoms: _490  and  _491
REMARK  203  A    between atoms: _490  and  _493
REMARK  204  A    between atoms: _493  and  _494
REMARK  205  A    between atoms: _498  and  _499
REMARK  206  A    between atoms: _504  and  _506
REMARK  207  A    between atoms: _506  and  _507
REMARK  208  A    between atoms: _506  and  _509
REMARK  209  A    between atoms: _512  and  _514
REMARK  210  A    between atoms: _514  and  _515
REMARK  211  A    between atoms: _514  and  _517
REMARK  212  A    between atoms: _517  and  _518
REMARK  213  A    between atoms: _523  and  _525
REMARK  214  A    between atoms: _525  and  _526
REMARK  215  A    between atoms: _525  and  _528
REMARK  216  A    between atoms: _528  and  _529
REMARK  217  A    between atoms: _532  and  _534
REMARK  218  A    between atoms: _534  and  _535
REMARK  219  A    between atoms: _534  and  _537
REMARK  220  A    between atoms: _537  and  _538
REMARK  221  A    between atoms: _541  and  _543
REMARK  222  A    between atoms: _543  and  _544
REMARK  223  A    between atoms: _546  and  _548
REMARK  224  A    between atoms: _548  and  _549
REMARK  225  A    between atoms: _548  and  _551
REMARK  226  A    between atoms: _551  and  _552
REMARK  227  A    between atoms: _552  and  _553
REMARK  228  A    between atoms: _553  and  _554
REMARK  229  A    between atoms: _563  and  _565
REMARK  230  A    between atoms: _565  and  _566
REMARK  231  A    between atoms: _565  and  _568
REMARK  232  A    between atoms: _568  and  _569
REMARK                            x       y       z     vdW  Elec       q    Type
REMARK                         _______ _______ _______ _____ _____    ______ ____
ROOT
ATOM      1  CA  LEU A   1      -4.179  17.744  41.149  0.00  0.00    +0.133 C 
ENDROOT
BRANCH   1   2
ATOM      2  N   LEU A   1      -4.759  19.065  41.325  0.00  0.00    -0.239 NA
ATOM      3  H   LEU A   1      -5.178  19.552  40.507  0.00  0.00    +0.142 HD
ENDBRANCH   1   2
BRANCH   1   4
ATOM      4  C   LEU A   1      -2.909  17.979  40.402  0.00  0.00    +0.224 C 
ATOM      5  O   LEU A   1      -2.926  18.718  39.439  0.00  0.00    -0.287 OA
ENDBRANCH   1   4
BRANCH   1   6
ATOM      6  CB  LEU A   1      -5.129  16.969  40.243  0.00  0.00    +0.025 C 
BRANCH   6   7
ATOM      7  CG  LEU A   1      -6.261  16.120  40.822  0.00  0.00    +0.002 C 
ATOM      8  CD2 LEU A   1      -7.062  16.759  41.931  0.00  0.00    +0.000 C 
ATOM      9  CD1 LEU A   1      -7.203  15.818  39.673  0.00  0.00    +0.000 C 
ENDBRANCH   6   7
ENDBRANCH   1   6
TORSDOF 4
REMARK  Name = ../refined-set-2016/1qbr/1qbr_pocket.pdb
REMARK  232 active torsions:
REMARK  status: ('A' for Active; 'I' for Inactive)
REMARK    1  A    between atoms: _1  and  _3
REMARK    2  A    between atoms: _3  and  _4
REMARK    3  A    between atoms: _3  and  _6
REMARK    4  A    between atoms: _6  and  _7
REMARK    5  A    between atoms: _7  and  _8
REMARK    6  A    between atoms: _8  and  _9
REMARK    7  A    between atoms: _18  and  _20
REMARK    8  A    between atoms: _20  and  _21
REMARK    9  A    between atoms: _20  and  _23
REMARK   10  A    between atoms: _23  and  _24
REMARK   11  A    between atoms: _27  and  _29
REMARK   12  A    between atoms: _29  and  _30
REMARK   13  A    between atoms: _29  and  _32
REMARK   14  A    between atoms: _32  and  _33
REMARK   15  A    between atoms: _36  and  _38
REMARK   16  A    between atoms: _38  and  _39
REMARK   17  A    between atoms: _38  and  _41
REMARK   18  A    between atoms: _41  and  _42
REMARK   19  A    between atoms: _45  and  _47
REMARK   20  A    between atoms: _47  and  _48
REMARK   21  A    between atoms: _47  and  _50
REMARK   22  A    between atoms: _50  and  _51
REMARK   23  A    between atoms: _54  and  _56
REMARK   24  A    between atoms: _56  and  _57
REMARK   25  A    between atoms: _59  and  _61
REMARK   26  A    between atoms: _61  and  _62
REMARK   27  A    between atoms: _65  and  _67
REMARK   28  A    between atoms: _67  and  _68
REMARK   29  A    between atoms: _67  and  _70
REMARK   30  A    between atoms: _70  and  _71
REMARK   31  A    between atoms: _74  and  _76
REMARK   32  A    between atoms: _76  and  _77
REMARK   33  A    between atoms: _76  and  _79
REMARK   34  A    between atoms: _79  and  _80
REMARK   35  A    between atoms: _83  and  _85
REMARK   36  A    between atoms: _85  and  _86
REMARK   37  A    between atoms: _85  and  _88
REMARK   38  A    between atoms: _88  and  _89
REMARK   39  A    between atoms: _92  and  _94
REMARK   40  A    between atoms: _94  and  _95
REMARK   41  A    between atoms: _94  and  _97
REMARK   42  A    between atoms: _100  and  _102
REMARK   43  A    between atoms: _102  and  _103
REMARK   44  A    between atoms: _102  and  _105
REMARK   45  A    between atoms: _105  and  _106
REMARK   46  A    between atoms: _109  and  _111
REMARK   47  A    between atoms: _111  and  _112
REMARK   48  A    between atoms: _111  and  _114
REMARK   49  A    between atoms: _114  and  _115
REMARK   50  A    between atoms: _115  and  _116
REMARK   51  A    between atoms: _116  and  _117
REMARK   52  A    between atoms: _117  and  _118
REMARK   53  A    between atoms: _122  and  _124
REMARK   54  A    between atoms: _124  and  _125
REMARK   55  A    between atoms: _124  and  _127
REMARK   56  A    between atoms: _127  and  _128
REMARK   57  A    between atoms: _128  and  _129
REMARK   58  A    between atoms: _131  and  _133
REMARK   59  A    between atoms: _133  and  _134
REMARK   60  A    between atoms: _133  and  _136
REMARK   61  A    between atoms: _136  and  _137
REMARK   62  A    between atoms: _140  and  _142
REMARK   63  A    between atoms: _142  and  _143
REMARK   64  A    between atoms: _145  and  _147
REMARK   65  A    between atoms: _147  and  _148
REMARK   66  A    between atoms: _150  and  _152
REMARK   67  A    between atoms: _152  and  _153
REMARK   68  A    between atoms: _152  and  _155
REMARK   69  A    between atoms: _155  and  _156
REMARK   70  A    between atoms: _159  and  _161
REMARK   71  A    between atoms: _161  and  _162
REMARK   72  A    between atoms: _164  and  _166
REMARK   73  A    between atoms: _166  and  _167
REMARK   74  A    between atoms: _169  and  _171
REMARK   75  A    between atoms: _171  and  _172
REMARK   76  A    between atoms: _171  and  _174
REMARK   77  A    between atoms: _174  and  _175
REMARK   78  A    between atoms: _181  and  _183
REMARK   79  A    between atoms: _183  and  _184
REMARK   80  A    between atoms: _183  and  _186
REMARK   81  A    between atoms: _186  and  _187
REMARK   82  A    between atoms: _190  and  _192
REMARK   83  A    between atoms: _192  and  _193
REMARK   84  A    between atoms: _192  and  _195
REMARK   85  A    between atoms: _195  and  _196
REMARK   86  A    between atoms: _200  and  _201
REMARK   87  A    between atoms: _206  and  _208
REMARK   88  A    between atoms: _208  and  _209
REMARK   89  A    between atoms: _208  and  _211
REMARK   90  A    between atoms: _211  and  _212
REMARK   91  A    between atoms: _216  and  _217
REMARK   92  A    between atoms: _222  and  _224
REMARK   93  A    between atoms: _224  and  _225
REMARK   94  A    between atoms: _224  and  _227
REMARK   95  A    between atoms: _230  and  _232
REMARK   96  A    between atoms: _232  and  _233
REMARK   97  A    between atoms: _232  and  _235
REMARK   98  A    between atoms: _235  and  _236
REMARK   99  A    between atoms: _241  and  _243
REMARK  100  A    between atoms: _243  and  _244
REMARK  101  A    between atoms: _243  and  _246
REMARK  102  A    between atoms: _246  and  _247
REMARK  103  A    between atoms: _250  and  _252
REMARK  104  A    between atoms: _252  and  _253
REMARK  105  A    between atoms: _252  and  _255
REMARK  106  A    between atoms: _255  and  _256
REMARK  107  A    between atoms: _259  and  _261
REMARK  108  A    between atoms: _261  and  _262
REMARK  109  A    between atoms: _264  and  _266
REMARK  110  A    between atoms: _266  and  _267
REMARK  111  A    between atoms: _266  and  _269
REMARK  112  A    between atoms: _269  and  _270
REMARK  113  A    between atoms: _270  and  _271
REMARK  114  A    between atoms: _271  and  _272
REMARK  115  A    between atoms: _281  and  _283
REMARK  116  A    between atoms: _283  and  _284
REMARK  117  A    between atoms: _283  and  _286
REMARK  118  A    between atoms: _286  and  _287
REMARK  119  A    between atoms: _292  and  _294
REMARK  120  A    between atoms: _294  and  _295
REMARK  121  A    between atoms: _294  and  _297
REMARK  122  A    between atoms: _297  and  _298
REMARK  123  A    between atoms: _298  and  _299
REMARK  124  A    between atoms: _299  and  _300
REMARK  125  A    between atoms: _309  and  _311
REMARK  126  A    between atoms: _311  and  _312
REMARK  127  A    between atoms: _311  and  _314
REMARK  128  A    between atoms: _314  and  _315
REMARK  129  A    between atoms: _318  and  _320
REMARK  130  A    between atoms: _320  and  _321
REMARK  131  A    between atoms: _320  and  _323
REMARK  132  A    between atoms: _323  and  _324
REMARK  133  A    between atoms: _327  and  _329
REMARK  134  A    between atoms: _329  and  _330
REMARK  135  A    between atoms: _329  and  _332
REMARK  136  A    between atoms: _332  and  _333
REMARK  137  A    between atoms: _336  and  _338
REMARK  138  A    between atoms: _338  and  _339
REMARK  139  A    between atoms: _338  and  _341
REMARK  140  A    between atoms: _341  and  _342
REMARK  141  A    between atoms: _345  and  _347
REMARK  142  A    between atoms: _347  and  _348
REMARK  143  A    between atoms: _350  and  _352
REMARK  144  A    between atoms: _352  and  _353
REMARK  145  A    between atoms: _356  and  _358
REMARK  146  A    between atoms: _358  and  _359
REMARK  147  A    between atoms: _358  and  _361
REMARK  148  A    between atoms: _361  and  _362
REMARK  149  A    between atoms: _365  and  _367
REMARK  150  A    between atoms: _367  and  _368
REMARK  151  A    between atoms: _367  and  _370
REMARK  152  A    between atoms: _370  and  _371
REMARK  153  A    between atoms: _374  and  _376
REMARK  154  A    between atoms: _376  and  _377
REMARK  155  A    between atoms: _376  and  _379
REMARK  156  A    between atoms: _379  and  _380
REMARK  157  A    between atoms: _383  and  _385
REMARK  158  A    between atoms: _385  and  _386
REMARK  159  A    between atoms: _385  and  _388
REMARK  160  A    between atoms: _391  and  _393
REMARK  161  A    between atoms: _393  and  _394
REMARK  162  A    between atoms: _393  and  _396
REMARK  163  A    between atoms: _396  and  _397
REMARK  164  A    between atoms: _397  and  _398
REMARK  165  A    between atoms: _398  and  _399
REMARK  166  A    between atoms: _399  and  _400
REMARK  167  A    between atoms: _404  and  _406
REMARK  168  A    between atoms: _406  and  _407
REMARK  169  A    between atoms: _406  and  _409
REMARK  170  A    between atoms: _409  and  _410
REMARK  171  A    between atoms: _410  and  _411
REMARK  172  A    between atoms: _413  and  _415
REMARK  173  A    between atoms: _415  and  _416
REMARK  174  A    between atoms: _415  and  _418
REMARK  175  A    between atoms: _418  and  _419
REMARK  176  A    between atoms: _422  and  _424
REMARK  177  A    between atoms: _424  and  _425
REMARK  178  A    between atoms: _427  and  _429
REMARK  179  A    between atoms: _429  and  _430
REMARK  180  A    between atoms: _432  and  _434
REMARK  181  A    between atoms: _434  and  _435
REMARK  182  A    between atoms: _434  and  _437
REMARK  183  A    between atoms: _437  and  _438
REMARK  184  A    between atoms: _441  and  _443
REMARK  185  A    between atoms: _443  and  _444
REMARK  186  A    between atoms: _446  and  _448
REMARK  187  A    between atoms: _448  and  _449
REMARK  188  A    between atoms: _451  and  _453
REMARK  189  A    between atoms: _453  and  _454
REMARK  190  A    between atoms: _453  and  _456
REMARK  191  A    between atoms: _456  and  _457
REMARK  192  A    between atoms: _463  and  _465
REMARK  193  A    between atoms: _465  and  _466
REMARK  194  A    between atoms: _465  and  _468
REMARK  195  A    between atoms: _468  and  _469
REMARK  196  A    between atoms: _472  and  _474
REMARK  197  A    between atoms: _474  and  _475
REMARK  198  A    between atoms: _474  and  _477
REMARK  199  A    between atoms: _477  and  _478
REMARK  200  A    between atoms: _482  and  _483
REMARK  201  A    between atoms: _488  and  _490
REMARK  202  A    between atoms: _490  and  _491
REMARK  203  A    between atoms: _490  and  _493
REMARK  204  A    between atoms: _493  and  _494
REMARK  205  A    between atoms: _498  and  _499
REMARK  206  A    between atoms: _504  and  _506
REMARK  207  A    between atoms: _506  and  _507
REMARK  208  A    between atoms: _506  and  _509
REMARK  209  A    between atoms: _512  and  _514
REMARK  210  A    between atoms: _514  and  _515
REMARK  211  A    between atoms: _514  and  _517
REMARK  212  A    between atoms: _517  and  _518
REMARK  213  A    between atoms: _523  and  _525
REMARK  214  A    between atoms: _525  and  _526
REMARK  215  A    between atoms: _525  and  _528
REMARK  216  A    between atoms: _528  and  _529
REMARK  217  A    between atoms: _532  and  _534
REMARK  218  A    between atoms: _534  and  _535
REMARK  219  A    between atoms: _534  and  _537
REMARK  220  A    between atoms: _537  and  _538
REMARK  221  A    between atoms: _541  and  _543
REMARK  222  A    between atoms: _543  and  _544
REMARK  223  A    between atoms: _546  and  _548
REMARK  224  A    between atoms: _548  and  _549
REMARK  225  A    between atoms: _548  and  _551
REMARK  226  A    between atoms: _551  and  _552
REMARK  227  A    between atoms: _552  and  _553
REMARK  228  A    between atoms: _553  and  _554
REMARK  229  A    between atoms: _563  and  _565
REMARK  230  A    between atoms: _565  and  _566
REMARK  231  A    between atoms: _565  and  _568
REMARK  232  A    between atoms: _568  and  _569
REMARK                            x       y       z     vdW  Elec       q    Type
REMARK                         _______ _______ _______ _____ _____    ______ ____
ROOT
ATOM      1  CA  ILE A   6      -5.688  22.759  32.859  0.00  0.00    +0.149 C 
ENDROOT
BRANCH   1   3
ATOM      2  C   ASN A   5      -3.310  23.187  32.427  0.00  0.00    +0.241 C 
ATOM      3  N   ILE A   6      -4.265  22.695  33.209  0.00  0.00    -0.297 N 
ATOM      4  H   ILE A   6      -3.992  22.246  34.106  0.00  0.00    +0.150 HD
ATOM      5  O   ASN A   5      -3.532  23.819  31.404  0.00  0.00    -0.273 OA
BRANCH   2   6
ATOM      6  CA  ASN A   5      -1.894  22.901  32.846  0.00  0.00    +0.158 C 
BRANCH   6   8
ATOM      7  C   VAL A   4      -1.482  21.299  31.101  0.00  0.00    +0.241 C 
ATOM      8  N   ASN A   5      -1.181  22.455  31.657  0.00  0.00    -0.297 N 
ATOM      9  H   ASN A   5      -0.433  23.050  31.246  0.00  0.00    +0.150 HD
ATOM     10  O   VAL A   4      -2.278  20.520  31.603  0.00  0.00    -0.273 OA
BRANCH   7  11
ATOM     11  CA  VAL A   4      -0.735  20.991  29.817  0.00  0.00    +0.149 C 
BRANCH  11  13
ATOM     12  C   PRO A   3       0.553  19.080  29.019  0.00  0.00    +0.241 C 
ATOM     13  N   VAL A   4      -0.505  19.555  29.703  0.00  0.00    -0.297 N 
ATOM     14  H   VAL A   4      -1.165  18.891  30.155  0.00  0.00    +0.150 HD
ATOM     15  O   PRO A   3       1.436  19.792  28.569  0.00  0.00    -0.273 OA
BRANCH  12  22
ATOM     16  C   THR A   2       0.239  16.845  30.992  0.00  0.00    +0.246 C 
ATOM     17  O   THR A   2       1.321  17.311  31.308  0.00  0.00    -0.273 OA
ATOM     18  N   PRO A   3      -0.201  16.833  29.741  0.00  0.00    -0.272 N 
ATOM     19  CD  PRO A   3      -1.358  16.150  29.154  0.00  0.00    +0.094 C 
ATOM     20  CG  PRO A   3      -0.965  15.947  27.705  0.00  0.00    +0.024 C 
ATOM     21  CB  PRO A   3      -0.114  17.192  27.438  0.00  0.00    +0.031 C 
ATOM     22  CA  PRO A   3       0.578  17.573  28.768  0.00  0.00    +0.152 C 
BRANCH  16  23
ATOM     23  CA  THR A   2      -0.677  16.258  32.036  0.00  0.00    +0.176 C 
BRANCH  23  25
ATOM     24  C   PRO A   1       0.705  14.596  32.988  0.00  0.00    +0.239 C 
ATOM     25  N   THR A   2       0.169  15.797  33.117  0.00  0.00    -0.295 N 
ATOM     26  H   THR A   2       0.347  16.384  33.957  0.00  0.00    +0.150 HD
ATOM     27  O   PRO A   1       0.423  13.879  32.042  0.00  0.00    -0.274 OA
BRANCH  24  32
ATOM     28  N   PRO A   1       1.127  14.121  35.437  0.00  0.00    -0.210 NA
ATOM     29  CD  PRO A   1       0.938  12.759  35.933  0.00  0.00    +0.089 C 
ATOM     30  CG  PRO A   1       1.199  11.872  34.729  0.00  0.00    +0.021 C 
ATOM     31  CB  PRO A   1       2.186  12.716  33.927  0.00  0.00    +0.028 C 
ATOM     32  CA  PRO A   1       1.695  14.170  34.082  0.00  0.00    +0.149 C 
ENDBRANCH  24  32
ENDBRANCH  23  25
BRANCH  23  33
ATOM     33  CB  THR A   2      -1.636  17.289  32.655  0.00  0.00    +0.137 C 
ATOM     34  CG2 THR A   2      -0.908  18.356  33.462  0.00  0.00    +0.034 C 
BRANCH  33  35
ATOM     35  OG1 THR A   2      -2.456  17.885  31.656  0.00  0.00    -0.382 OA
ATOM     36  HG1 THR A   2      -3.063  18.543  32.078  0.00  0.00    +0.210 HD
ENDBRANCH  33  35
ENDBRANCH  23  33
ENDBRANCH  16  23
ENDBRANCH  12  22
ENDBRANCH  11  13
BRANCH  11  37
ATOM     37  CB  VAL A   4      -1.515  21.502  28.570  0.00  0.00    +0.027 C 
ATOM     38  CG2 VAL A   4      -1.596  23.031  28.539  0.00  0.00    +0.002 C 
ATOM     39  CG1 VAL A   4      -2.897  20.847  28.383  0.00  0.00    +0.002 C 
ENDBRANCH  11  37
ENDBRANCH   7  11
ENDBRANCH   6   8
BRANCH   6  40
ATOM     40  CB  ASN A   5      -1.269  24.222  33.345  0.00  0.00    +0.114 C 
BRANCH  40  41
ATOM     41  CG  ASN A   5       0.187  24.072  33.759  0.00  0.00    +0.222 C 
ATOM     42  OD1 ASN A   5       0.643  23.085  34.302  0.00  0.00    -0.275 OA
ATOM     43  ND2 ASN A   5       0.955  25.092  33.467  0.00  0.00    -0.329 N 
ATOM     44 HD21 ASN A   5       1.968  25.064  33.700  0.00  0.00    +0.145 HD
ATOM     45 HD22 ASN A   5       0.552  25.930  33.002  0.00  0.00    +0.145 HD
ENDBRANCH  40  41
ENDBRANCH   6  40
ENDBRANCH   2   6
ENDBRANCH   1   3
BRANCH   1  46
ATOM     46  C   ILE A   6      -6.440  23.230  34.065  0.00  0.00    +0.241 C 
ATOM     47  O   ILE A   6      -6.268  22.659  35.129  0.00  0.00    -0.273 OA
ATOM     48  N   ILE A   7      -7.245  24.271  33.865  0.00  0.00    -0.297 N 
ATOM     49  H   ILE A   7      -7.255  24.717  32.926  0.00  0.00    +0.150 HD
BRANCH  48  50
ATOM     50  CA  ILE A   7      -8.112  24.813  34.900  0.00  0.00    +0.149 C 
BRANCH  50  51
ATOM     51  C   ILE A   7      -9.515  24.374  34.570  0.00  0.00    +0.241 C 
ATOM     52  N   GLY A   8     -10.060  23.508  35.411  0.00  0.00    -0.295 N 
ATOM     53  H   GLY A   8      -9.572  23.261  36.295  0.00  0.00    +0.150 HD
ATOM     54  O   ILE A   7     -10.044  24.800  33.556  0.00  0.00    -0.273 OA
BRANCH  52  55
ATOM     55  CA  GLY A   8     -11.339  22.907  35.094  0.00  0.00    +0.176 C 
BRANCH  55  56
ATOM     56  C   GLY A   8     -12.427  23.491  35.943  0.00  0.00    +0.243 C 
ATOM     57  O   GLY A   8     -12.220  24.451  36.679  0.00  0.00    -0.273 OA
ATOM     58  N   ARG A   9     -13.628  22.895  35.847  0.00  0.00    -0.297 N 
ATOM     59  H   ARG A   9     -13.726  22.001  35.324  0.00  0.00    +0.150 HD
BRANCH  58  60
ATOM     60  CA  ARG A   9     -14.803  23.510  36.483  0.00  0.00    +0.149 C 
BRANCH  60  61
ATOM     61  C   ARG A   9     -14.761  23.772  37.967  0.00  0.00    +0.241 C 
ATOM     62  N   ASN A  10     -14.070  22.918  38.710  0.00  0.00    -0.298 N 
ATOM     63  H   ASN A  10     -13.639  22.061  38.307  0.00  0.00    +0.150 HD
ATOM     64  O   ARG A   9     -15.310  24.761  38.439  0.00  0.00    -0.273 OA
BRANCH  62  65
ATOM     65  CA  ASN A  10     -13.948  23.253  40.137  0.00  0.00    +0.146 C 
BRANCH  65  66
ATOM     66  C   ASN A  10     -13.443  24.667  40.428  0.00  0.00    +0.227 C 
ATOM     67  O   ASN A  10     -13.881  25.340  41.348  0.00  0.00    -0.286 OA
ENDBRANCH  65  66
BRANCH  65  68
ATOM     68  CB  ASN A  10     -13.131  22.186  40.897  0.00  0.00    +0.112 C 
BRANCH  68  69
ATOM     69  CG  ASN A  10     -11.638  22.229  40.625  0.00  0.00    +0.222 C 
ATOM     70  ND2 ASN A  10     -10.881  21.826  41.626  0.00  0.00    -0.329 N 
ATOM     71 HD21 ASN A  10     -11.320  21.487  42.506  0.00  0.00    +0.145 HD
ATOM     72 HD22 ASN A  10      -9.845  21.847  41.536  0.00  0.00    +0.145 HD
ATOM     73  OD1 ASN A  10     -11.171  22.634  39.575  0.00  0.00    -0.275 OA
ENDBRANCH  68  69
ENDBRANCH  65  68
ENDBRANCH  62  65
ENDBRANCH  60  61
BRANCH  60  74
ATOM     74  CB  ARG A   9     -16.076  22.735  36.224  0.00  0.00    +0.033 C 
BRANCH  74  75
ATOM     75  CG  ARG A   9     -16.468  22.712  34.750  0.00  0.00    +0.045 C 
BRANCH  75  76
ATOM     76  CD  ARG A   9     -17.831  22.035  34.542  0.00  0.00    +0.174 C 
BRANCH  76  77
ATOM     77  NE  ARG A   9     -17.809  20.644  34.980  0.00  0.00    -0.265 N 
ATOM     78  CZ  ARG A   9     -18.378  20.242  36.122  0.00  0.00    +0.342 C 
ATOM     79  NH2 ARG A   9     -19.031  21.075  36.922  0.00  0.00    -0.292 N 
ATOM     80 HH21 ARG A   9     -19.460  20.723  37.802  0.00  0.00    +0.255 HD
ATOM     81 HH22 ARG A   9     -19.114  22.080  36.669  0.00  0.00    +0.255 HD
ATOM     82  NH1 ARG A   9     -18.269  18.969  36.479  0.00  0.00    -0.292 N 
ATOM     83 HH11 ARG A   9     -18.705  18.638  37.363  0.00  0.00    +0.255 HD
ATOM     84 HH12 ARG A   9     -17.748  18.302  35.875  0.00  0.00    +0.255 HD
ATOM     85  HE  ARG A   9     -17.333  19.938  34.382  0.00  0.00    +0.259 HD
ENDBRANCH  76  77
ENDBRANCH  75  76
ENDBRANCH  74  75
ENDBRANCH  60  74
ENDBRANCH  58  60
ENDBRANCH  55  56
ENDBRANCH  52  55
ENDBRANCH  50  51
BRANCH  50  86
ATOM     86  CB  ILE A   7      -8.113  26.341  34.863  0.00  0.00    +0.027 C 
ATOM     87  CG2 ILE A   7      -8.960  26.885  36.016  0.00  0.00    +0.002 C 
BRANCH  86  88
ATOM     88  CG1 ILE A   7      -6.740  27.005  34.866  0.00  0.00    +0.002 C 
ATOM     89  CD1 ILE A   7      -5.937  26.706  36.130  0.00  0.00    +0.000 C 
ENDBRANCH  86  88
ENDBRANCH  50  86
ENDBRANCH  48  50
ENDBRANCH   1  46
BRANCH   1  90
ATOM     90  CB  ILE A   6      -6.149  21.333  32.521  0.00  0.00    +0.027 C 
ATOM     91  CG2 ILE A   6      -7.666  21.107  32.552  0.00  0.00    +0.002 C 
BRANCH  90  92
ATOM     92  CG1 ILE A   6      -5.634  20.869  31.172  0.00  0.00    +0.002 C 
ATOM     93  CD1 ILE A   6      -5.689  19.354  31.111  0.00  0.00    +0.000 C 
ENDBRANCH  90  92
ENDBRANCH   1  90
TORSDOF 33
REMARK  Name = ../refined-set-2016/1qbr/1qbr_pocket.pdb
REMARK  232 active torsions:
REMARK  status: ('A' for Active; 'I' for Inactive)
REMARK    1  A    between atoms: _1  and  _3
REMARK    2  A    between atoms: _3  and  _4
REMARK    3  A    between atoms: _3  and  _6
REMARK    4  A    between atoms: _6  and  _7
REMARK    5  A    between atoms: _7  and  _8
REMARK    6  A    between atoms: _8  and  _9
REMARK    7  A    between atoms: _18  and  _20
REMARK    8  A    between atoms: _20  and  _21
REMARK    9  A    between atoms: _20  and  _23
REMARK   10  A    between atoms: _23  and  _24
REMARK   11  A    between atoms: _27  and  _29
REMARK   12  A    between atoms: _29  and  _30
REMARK   13  A    between atoms: _29  and  _32
REMARK   14  A    between atoms: _32  and  _33
REMARK   15  A    between atoms: _36  and  _38
REMARK   16  A    between atoms: _38  and  _39
REMARK   17  A    between atoms: _38  and  _41
REMARK   18  A    between atoms: _41  and  _42
REMARK   19  A    between atoms: _45  and  _47
REMARK   20  A    between atoms: _47  and  _48
REMARK   21  A    between atoms: _47  and  _50
REMARK   22  A    between atoms: _50  and  _51
REMARK   23  A    between atoms: _54  and  _56
REMARK   24  A    between atoms: _56  and  _57
REMARK   25  A    between atoms: _59  and  _61
REMARK   26  A    between atoms: _61  and  _62
REMARK   27  A    between atoms: _65  and  _67
REMARK   28  A    between atoms: _67  and  _68
REMARK   29  A    between atoms: _67  and  _70
REMARK   30  A    between atoms: _70  and  _71
REMARK   31  A    between atoms: _74  and  _76
REMARK   32  A    between atoms: _76  and  _77
REMARK   33  A    between atoms: _76  and  _79
REMARK   34  A    between atoms: _79  and  _80
REMARK   35  A    between atoms: _83  and  _85
REMARK   36  A    between atoms: _85  and  _86
REMARK   37  A    between atoms: _85  and  _88
REMARK   38  A    between atoms: _88  and  _89
REMARK   39  A    between atoms: _92  and  _94
REMARK   40  A    between atoms: _94  and  _95
REMARK   41  A    between atoms: _94  and  _97
REMARK   42  A    between atoms: _100  and  _102
REMARK   43  A    between atoms: _102  and  _103
REMARK   44  A    between atoms: _102  and  _105
REMARK   45  A    between atoms: _105  and  _106
REMARK   46  A    between atoms: _109  and  _111
REMARK   47  A    between atoms: _111  and  _112
REMARK   48  A    between atoms: _111  and  _114
REMARK   49  A    between atoms: _114  and  _115
REMARK   50  A    between atoms: _115  and  _116
REMARK   51  A    between atoms: _116  and  _117
REMARK   52  A    between atoms: _117  and  _118
REMARK   53  A    between atoms: _122  and  _124
REMARK   54  A    between atoms: _124  and  _125
REMARK   55  A    between atoms: _124  and  _127
REMARK   56  A    between atoms: _127  and  _128
REMARK   57  A    between atoms: _128  and  _129
REMARK   58  A    between atoms: _131  and  _133
REMARK   59  A    between atoms: _133  and  _134
REMARK   60  A    between atoms: _133  and  _136
REMARK   61  A    between atoms: _136  and  _137
REMARK   62  A    between atoms: _140  and  _142
REMARK   63  A    between atoms: _142  and  _143
REMARK   64  A    between atoms: _145  and  _147
REMARK   65  A    between atoms: _147  and  _148
REMARK   66  A    between atoms: _150  and  _152
REMARK   67  A    between atoms: _152  and  _153
REMARK   68  A    between atoms: _152  and  _155
REMARK   69  A    between atoms: _155  and  _156
REMARK   70  A    between atoms: _159  and  _161
REMARK   71  A    between atoms: _161  and  _162
REMARK   72  A    between atoms: _164  and  _166
REMARK   73  A    between atoms: _166  and  _167
REMARK   74  A    between atoms: _169  and  _171
REMARK   75  A    between atoms: _171  and  _172
REMARK   76  A    between atoms: _171  and  _174
REMARK   77  A    between atoms: _174  and  _175
REMARK   78  A    between atoms: _181  and  _183
REMARK   79  A    between atoms: _183  and  _184
REMARK   80  A    between atoms: _183  and  _186
REMARK   81  A    between atoms: _186  and  _187
REMARK   82  A    between atoms: _190  and  _192
REMARK   83  A    between atoms: _192  and  _193
REMARK   84  A    between atoms: _192  and  _195
REMARK   85  A    between atoms: _195  and  _196
REMARK   86  A    between atoms: _200  and  _201
REMARK   87  A    between atoms: _206  and  _208
REMARK   88  A    between atoms: _208  and  _209
REMARK   89  A    between atoms: _208  and  _211
REMARK   90  A    between atoms: _211  and  _212
REMARK   91  A    between atoms: _216  and  _217
REMARK   92  A    between atoms: _222  and  _224
REMARK   93  A    between atoms: _224  and  _225
REMARK   94  A    between atoms: _224  and  _227
REMARK   95  A    between atoms: _230  and  _232
REMARK   96  A    between atoms: _232  and  _233
REMARK   97  A    between atoms: _232  and  _235
REMARK   98  A    between atoms: _235  and  _236
REMARK   99  A    between atoms: _241  and  _243
REMARK  100  A    between atoms: _243  and  _244
REMARK  101  A    between atoms: _243  and  _246
REMARK  102  A    between atoms: _246  and  _247
REMARK  103  A    between atoms: _250  and  _252
REMARK  104  A    between atoms: _252  and  _253
REMARK  105  A    between atoms: _252  and  _255
REMARK  106  A    between atoms: _255  and  _256
REMARK  107  A    between atoms: _259  and  _261
REMARK  108  A    between atoms: _261  and  _262
REMARK  109  A    between atoms: _264  and  _266
REMARK  110  A    between atoms: _266  and  _267
REMARK  111  A    between atoms: _266  and  _269
REMARK  112  A    between atoms: _269  and  _270
REMARK  113  A    between atoms: _270  and  _271
REMARK  114  A    between atoms: _271  and  _272
REMARK  115  A    between atoms: _281  and  _283
REMARK  116  A    between atoms: _283  and  _284
REMARK  117  A    between atoms: _283  and  _286
REMARK  118  A    between atoms: _286  and  _287
REMARK  119  A    between atoms: _292  and  _294
REMARK  120  A    between atoms: _294  and  _295
REMARK  121  A    between atoms: _294  and  _297
REMARK  122  A    between atoms: _297  and  _298
REMARK  123  A    between atoms: _298  and  _299
REMARK  124  A    between atoms: _299  and  _300
REMARK  125  A    between atoms: _309  and  _311
REMARK  126  A    between atoms: _311  and  _312
REMARK  127  A    between atoms: _311  and  _314
REMARK  128  A    between atoms: _314  and  _315
REMARK  129  A    between atoms: _318  and  _320
REMARK  130  A    between atoms: _320  and  _321
REMARK  131  A    between atoms: _320  and  _323
REMARK  132  A    between atoms: _323  and  _324
REMARK  133  A    between atoms: _327  and  _329
REMARK  134  A    between atoms: _329  and  _330
REMARK  135  A    between atoms: _329  and  _332
REMARK  136  A    between atoms: _332  and  _333
REMARK  137  A    between atoms: _336  and  _338
REMARK  138  A    between atoms: _338  and  _339
REMARK  139  A    between atoms: _338  and  _341
REMARK  140  A    between atoms: _341  and  _342
REMARK  141  A    between atoms: _345  and  _347
REMARK  142  A    between atoms: _347  and  _348
REMARK  143  A    between atoms: _350  and  _352
REMARK  144  A    between atoms: _352  and  _353
REMARK  145  A    between atoms: _356  and  _358
REMARK  146  A    between atoms: _358  and  _359
REMARK  147  A    between atoms: _358  and  _361
REMARK  148  A    between atoms: _361  and  _362
REMARK  149  A    between atoms: _365  and  _367
REMARK  150  A    between atoms: _367  and  _368
REMARK  151  A    between atoms: _367  and  _370
REMARK  152  A    between atoms: _370  and  _371
REMARK  153  A    between atoms: _374  and  _376
REMARK  154  A    between atoms: _376  and  _377
REMARK  155  A    between atoms: _376  and  _379
REMARK  156  A    between atoms: _379  and  _380
REMARK  157  A    between atoms: _383  and  _385
REMARK  158  A    between atoms: _385  and  _386
REMARK  159  A    between atoms: _385  and  _388
REMARK  160  A    between atoms: _391  and  _393
REMARK  161  A    between atoms: _393  and  _394
REMARK  162  A    between atoms: _393  and  _396
REMARK  163  A    between atoms: _396  and  _397
REMARK  164  A    between atoms: _397  and  _398
REMARK  165  A    between atoms: _398  and  _399
REMARK  166  A    between atoms: _399  and  _400
REMARK  167  A    between atoms: _404  and  _406
REMARK  168  A    between atoms: _406  and  _407
REMARK  169  A    between atoms: _406  and  _409
REMARK  170  A    between atoms: _409  and  _410
REMARK  171  A    between atoms: _410  and  _411
REMARK  172  A    between atoms: _413  and  _415
REMARK  173  A    between atoms: _415  and  _416
REMARK  174  A    between atoms: _415  and  _418
REMARK  175  A    between atoms: _418  and  _419
REMARK  176  A    between atoms: _422  and  _424
REMARK  177  A    between atoms: _424  and  _425
REMARK  178  A    between atoms: _427  and  _429
REMARK  179  A    between atoms: _429  and  _430
REMARK  180  A    between atoms: _432  and  _434
REMARK  181  A    between atoms: _434  and  _435
REMARK  182  A    between atoms: _434  and  _437
REMARK  183  A    between atoms: _437  and  _438
REMARK  184  A    between atoms: _441  and  _443
REMARK  185  A    between atoms: _443  and  _444
REMARK  186  A    between atoms: _446  and  _448
REMARK  187  A    between atoms: _448  and  _449
REMARK  188  A    between atoms: _451  and  _453
REMARK  189  A    between atoms: _453  and  _454
REMARK  190  A    between atoms: _453  and  _456
REMARK  191  A    between atoms: _456  and  _457
REMARK  192  A    between atoms: _463  and  _465
REMARK  193  A    between atoms: _465  and  _466
REMARK  194  A    between atoms: _465  and  _468
REMARK  195  A    between atoms: _468  and  _469
REMARK  196  A    between atoms: _472  and  _474
REMARK  197  A    between atoms: _474  and  _475
REMARK  198  A    between atoms: _474  and  _477
REMARK  199  A    between atoms: _477  and  _478
REMARK  200  A    between atoms: _482  and  _483
REMARK  201  A    between atoms: _488  and  _490
REMARK  202  A    between atoms: _490  and  _491
REMARK  203  A    between atoms: _490  and  _493
REMARK  204  A    between atoms: _493  and  _494
REMARK  205  A    between atoms: _498  and  _499
REMARK  206  A    between atoms: _504  and  _506
REMARK  207  A    between atoms: _506  and  _507
REMARK  208  A    between atoms: _506  and  _509
REMARK  209  A    between atoms: _512  and  _514
REMARK  210  A    between atoms: _514  and  _515
REMARK  211  A    between atoms: _514  and  _517
REMARK  212  A    between atoms: _517  and  _518
REMARK  213  A    between atoms: _523  and  _525
REMARK  214  A    between atoms: _525  and  _526
REMARK  215  A    between atoms: _525  and  _528
REMARK  216  A    between atoms: _528  and  _529
REMARK  217  A    between atoms: _532  and  _534
REMARK  218  A    between atoms: _534  and  _535
REMARK  219  A    between atoms: _534  and  _537
REMARK  220  A    between atoms: _537  and  _538
REMARK  221  A    between atoms: _541  and  _543
REMARK  222  A    between atoms: _543  and  _544
REMARK  223  A    between atoms: _546  and  _548
REMARK  224  A    between atoms: _548  and  _549
REMARK  225  A    between atoms: _548  and  _551
REMARK  226  A    between atoms: _551  and  _552
REMARK  227  A    between atoms: _552  and  _553
REMARK  228  A    between atoms: _553  and  _554
REMARK  229  A    between atoms: _563  and  _565
REMARK  230  A    between atoms: _565  and  _566
REMARK  231  A    between atoms: _565  and  _568
REMARK  232  A    between atoms: _568  and  _569
REMARK                            x       y       z     vdW  Elec       q    Type
REMARK                         _______ _______ _______ _____ _____    ______ ____
ROOT
ATOM      1  NE  ARG A   1     -19.601  15.406  34.183  0.00  0.00    -0.265 N 
ATOM      2  HE  ARG A   1     -20.074  15.445  35.108  0.00  0.00    +0.259 HD
ATOM      3  CZ  ARG A   1     -18.579  14.579  34.005  0.00  0.00    +0.342 C 
ATOM      4  NH2 ARG A   1     -18.200  13.841  35.043  0.00  0.00    -0.292 N 
ATOM      5 HH21 ARG A   1     -18.700  13.925  35.951  0.00  0.00    +0.255 HD
ATOM      6 HH22 ARG A   1     -17.403  13.179  34.947  0.00  0.00    +0.255 HD
ATOM      7  NH1 ARG A   1     -17.936  14.480  32.832  0.00  0.00    -0.292 N 
ATOM      8 HH11 ARG A   1     -17.139  13.820  32.730  0.00  0.00    +0.255 HD
ATOM      9 HH12 ARG A   1     -18.235  15.063  32.024  0.00  0.00    +0.255 HD
ENDROOT
BRANCH   1  10
ATOM     10  CD  ARG A   1     -20.068  16.259  33.101  0.00  0.00    +0.174 C 
BRANCH  10  11
ATOM     11  CG  ARG A   1     -20.203  17.694  33.600  0.00  0.00    +0.045 C 
BRANCH  11  12
ATOM     12  CB  ARG A   1     -20.971  18.500  32.565  0.00  0.00    +0.029 C 
BRANCH  12  13
ATOM     13  CA  ARG A   1     -21.147  19.972  32.889  0.00  0.00    +0.133 C 
BRANCH  13  14
ATOM     14  N   ARG A   1     -21.716  20.113  34.221  0.00  0.00    -0.239 NA
ATOM     15  H   ARG A   1     -21.941  19.281  34.803  0.00  0.00    +0.142 HD
ENDBRANCH  13  14
BRANCH  13  16
ATOM     16  C   ARG A   1     -22.020  20.584  31.831  0.00  0.00    +0.224 C 
ATOM     17  O   ARG A   1     -23.219  20.331  31.815  0.00  0.00    -0.287 OA
ENDBRANCH  13  16
ENDBRANCH  12  13
ENDBRANCH  11  12
ENDBRANCH  10  11
ENDBRANCH   1  10
TORSDOF 6
REMARK  Name = ../refined-set-2016/1qbr/1qbr_pocket.pdb
REMARK  232 active torsions:
REMARK  status: ('A' for Active; 'I' for Inactive)
REMARK    1  A    between atoms: _1  and  _3
REMARK    2  A    between atoms: _3  and  _4
REMARK    3  A    between atoms: _3  and  _6
REMARK    4  A    between atoms: _6  and  _7
REMARK    5  A    between atoms: _7  and  _8
REMARK    6  A    between atoms: _8  and  _9
REMARK    7  A    between atoms: _18  and  _20
REMARK    8  A    between atoms: _20  and  _21
REMARK    9  A    between atoms: _20  and  _23
REMARK   10  A    between atoms: _23  and  _24
REMARK   11  A    between atoms: _27  and  _29
REMARK   12  A    between atoms: _29  and  _30
REMARK   13  A    between atoms: _29  and  _32
REMARK   14  A    between atoms: _32  and  _33
REMARK   15  A    between atoms: _36  and  _38
REMARK   16  A    between atoms: _38  and  _39
REMARK   17  A    between atoms: _38  and  _41
REMARK   18  A    between atoms: _41  and  _42
REMARK   19  A    between atoms: _45  and  _47
REMARK   20  A    between atoms: _47  and  _48
REMARK   21  A    between atoms: _47  and  _50
REMARK   22  A    between atoms: _50  and  _51
REMARK   23  A    between atoms: _54  and  _56
REMARK   24  A    between atoms: _56  and  _57
REMARK   25  A    between atoms: _59  and  _61
REMARK   26  A    between atoms: _61  and  _62
REMARK   27  A    between atoms: _65  and  _67
REMARK   28  A    between atoms: _67  and  _68
REMARK   29  A    between atoms: _67  and  _70
REMARK   30  A    between atoms: _70  and  _71
REMARK   31  A    between atoms: _74  and  _76
REMARK   32  A    between atoms: _76  and  _77
REMARK   33  A    between atoms: _76  and  _79
REMARK   34  A    between atoms: _79  and  _80
REMARK   35  A    between atoms: _83  and  _85
REMARK   36  A    between atoms: _85  and  _86
REMARK   37  A    between atoms: _85  and  _88
REMARK   38  A    between atoms: _88  and  _89
REMARK   39  A    between atoms: _92  and  _94
REMARK   40  A    between atoms: _94  and  _95
REMARK   41  A    between atoms: _94  and  _97
REMARK   42  A    between atoms: _100  and  _102
REMARK   43  A    between atoms: _102  and  _103
REMARK   44  A    between atoms: _102  and  _105
REMARK   45  A    between atoms: _105  and  _106
REMARK   46  A    between atoms: _109  and  _111
REMARK   47  A    between atoms: _111  and  _112
REMARK   48  A    between atoms: _111  and  _114
REMARK   49  A    between atoms: _114  and  _115
REMARK   50  A    between atoms: _115  and  _116
REMARK   51  A    between atoms: _116  and  _117
REMARK   52  A    between atoms: _117  and  _118
REMARK   53  A    between atoms: _122  and  _124
REMARK   54  A    between atoms: _124  and  _125
REMARK   55  A    between atoms: _124  and  _127
REMARK   56  A    between atoms: _127  and  _128
REMARK   57  A    between atoms: _128  and  _129
REMARK   58  A    between atoms: _131  and  _133
REMARK   59  A    between atoms: _133  and  _134
REMARK   60  A    between atoms: _133  and  _136
REMARK   61  A    between atoms: _136  and  _137
REMARK   62  A    between atoms: _140  and  _142
REMARK   63  A    between atoms: _142  and  _143
REMARK   64  A    between atoms: _145  and  _147
REMARK   65  A    between atoms: _147  and  _148
REMARK   66  A    between atoms: _150  and  _152
REMARK   67  A    between atoms: _152  and  _153
REMARK   68  A    between atoms: _152  and  _155
REMARK   69  A    between atoms: _155  and  _156
REMARK   70  A    between atoms: _159  and  _161
REMARK   71  A    between atoms: _161  and  _162
REMARK   72  A    between atoms: _164  and  _166
REMARK   73  A    between atoms: _166  and  _167
REMARK   74  A    between atoms: _169  and  _171
REMARK   75  A    between atoms: _171  and  _172
REMARK   76  A    between atoms: _171  and  _174
REMARK   77  A    between atoms: _174  and  _175
REMARK   78  A    between atoms: _181  and  _183
REMARK   79  A    between atoms: _183  and  _184
REMARK   80  A    between atoms: _183  and  _186
REMARK   81  A    between atoms: _186  and  _187
REMARK   82  A    between atoms: _190  and  _192
REMARK   83  A    between atoms: _192  and  _193
REMARK   84  A    between atoms: _192  and  _195
REMARK   85  A    between atoms: _195  and  _196
REMARK   86  A    between atoms: _200  and  _201
REMARK   87  A    between atoms: _206  and  _208
REMARK   88  A    between atoms: _208  and  _209
REMARK   89  A    between atoms: _208  and  _211
REMARK   90  A    between atoms: _211  and  _212
REMARK   91  A    between atoms: _216  and  _217
REMARK   92  A    between atoms: _222  and  _224
REMARK   93  A    between atoms: _224  and  _225
REMARK   94  A    between atoms: _224  and  _227
REMARK   95  A    between atoms: _230  and  _232
REMARK   96  A    between atoms: _232  and  _233
REMARK   97  A    between atoms: _232  and  _235
REMARK   98  A    between atoms: _235  and  _236
REMARK   99  A    between atoms: _241  and  _243
REMARK  100  A    between atoms: _243  and  _244
REMARK  101  A    between atoms: _243  and  _246
REMARK  102  A    between atoms: _246  and  _247
REMARK  103  A    between atoms: _250  and  _252
REMARK  104  A    between atoms: _252  and  _253
REMARK  105  A    between atoms: _252  and  _255
REMARK  106  A    between atoms: _255  and  _256
REMARK  107  A    between atoms: _259  and  _261
REMARK  108  A    between atoms: _261  and  _262
REMARK  109  A    between atoms: _264  and  _266
REMARK  110  A    between atoms: _266  and  _267
REMARK  111  A    between atoms: _266  and  _269
REMARK  112  A    between atoms: _269  and  _270
REMARK  113  A    between atoms: _270  and  _271
REMARK  114  A    between atoms: _271  and  _272
REMARK  115  A    between atoms: _281  and  _283
REMARK  116  A    between atoms: _283  and  _284
REMARK  117  A    between atoms: _283  and  _286
REMARK  118  A    between atoms: _286  and  _287
REMARK  119  A    between atoms: _292  and  _294
REMARK  120  A    between atoms: _294  and  _295
REMARK  121  A    between atoms: _294  and  _297
REMARK  122  A    between atoms: _297  and  _298
REMARK  123  A    between atoms: _298  and  _299
REMARK  124  A    between atoms: _299  and  _300
REMARK  125  A    between atoms: _309  and  _311
REMARK  126  A    between atoms: _311  and  _312
REMARK  127  A    between atoms: _311  and  _314
REMARK  128  A    between atoms: _314  and  _315
REMARK  129  A    between atoms: _318  and  _320
REMARK  130  A    between atoms: _320  and  _321
REMARK  131  A    between atoms: _320  and  _323
REMARK  132  A    between atoms: _323  and  _324
REMARK  133  A    between atoms: _327  and  _329
REMARK  134  A    between atoms: _329  and  _330
REMARK  135  A    between atoms: _329  and  _332
REMARK  136  A    between atoms: _332  and  _333
REMARK  137  A    between atoms: _336  and  _338
REMARK  138  A    between atoms: _338  and  _339
REMARK  139  A    between atoms: _338  and  _341
REMARK  140  A    between atoms: _341  and  _342
REMARK  141  A    between atoms: _345  and  _347
REMARK  142  A    between atoms: _347  and  _348
REMARK  143  A    between atoms: _350  and  _352
REMARK  144  A    between atoms: _352  and  _353
REMARK  145  A    between atoms: _356  and  _358
REMARK  146  A    between atoms: _358  and  _359
REMARK  147  A    between atoms: _358  and  _361
REMARK  148  A    between atoms: _361  and  _362
REMARK  149  A    between atoms: _365  and  _367
REMARK  150  A    between atoms: _367  and  _368
REMARK  151  A    between atoms: _367  and  _370
REMARK  152  A    between atoms: _370  and  _371
REMARK  153  A    between atoms: _374  and  _376
REMARK  154  A    between atoms: _376  and  _377
REMARK  155  A    between atoms: _376  and  _379
REMARK  156  A    between atoms: _379  and  _380
REMARK  157  A    between atoms: _383  and  _385
REMARK  158  A    between atoms: _385  and  _386
REMARK  159  A    between atoms: _385  and  _388
REMARK  160  A    between atoms: _391  and  _393
REMARK  161  A    between atoms: _393  and  _394
REMARK  162  A    between atoms: _393  and  _396
REMARK  163  A    between atoms: _396  and  _397
REMARK  164  A    between atoms: _397  and  _398
REMARK  165  A    between atoms: _398  and  _399
REMARK  166  A    between atoms: _399  and  _400
REMARK  167  A    between atoms: _404  and  _406
REMARK  168  A    between atoms: _406  and  _407
REMARK  169  A    between atoms: _406  and  _409
REMARK  170  A    between atoms: _409  and  _410
REMARK  171  A    between atoms: _410  and  _411
REMARK  172  A    between atoms: _413  and  _415
REMARK  173  A    between atoms: _415  and  _416
REMARK  174  A    between atoms: _415  and  _418
REMARK  175  A    between atoms: _418  and  _419
REMARK  176  A    between atoms: _422  and  _424
REMARK  177  A    between atoms: _424  and  _425
REMARK  178  A    between atoms: _427  and  _429
REMARK  179  A    between atoms: _429  and  _430
REMARK  180  A    between atoms: _432  and  _434
REMARK  181  A    between atoms: _434  and  _435
REMARK  182  A    between atoms: _434  and  _437
REMARK  183  A    between atoms: _437  and  _438
REMARK  184  A    between atoms: _441  and  _443
REMARK  185  A    between atoms: _443  and  _444
REMARK  186  A    between atoms: _446  and  _448
REMARK  187  A    between atoms: _448  and  _449
REMARK  188  A    between atoms: _451  and  _453
REMARK  189  A    between atoms: _453  and  _454
REMARK  190  A    between atoms: _453  and  _456
REMARK  191  A    between atoms: _456  and  _457
REMARK  192  A    between atoms: _463  and  _465
REMARK  193  A    between atoms: _465  and  _466
REMARK  194  A    between atoms: _465  and  _468
REMARK  195  A    between atoms: _468  and  _469
REMARK  196  A    between atoms: _472  and  _474
REMARK  197  A    between atoms: _474  and  _475
REMARK  198  A    between atoms: _474  and  _477
REMARK  199  A    between atoms: _477  and  _478
REMARK  200  A    between atoms: _482  and  _483
REMARK  201  A    between atoms: _488  and  _490
REMARK  202  A    between atoms: _490  and  _491
REMARK  203  A    between atoms: _490  and  _493
REMARK  204  A    between atoms: _493  and  _494
REMARK  205  A    between atoms: _498  and  _499
REMARK  206  A    between atoms: _504  and  _506
REMARK  207  A    between atoms: _506  and  _507
REMARK  208  A    between atoms: _506  and  _509
REMARK  209  A    between atoms: _512  and  _514
REMARK  210  A    between atoms: _514  and  _515
REMARK  211  A    between atoms: _514  and  _517
REMARK  212  A    between atoms: _517  and  _518
REMARK  213  A    between atoms: _523  and  _525
REMARK  214  A    between atoms: _525  and  _526
REMARK  215  A    between atoms: _525  and  _528
REMARK  216  A    between atoms: _528  and  _529
REMARK  217  A    between atoms: _532  and  _534
REMARK  218  A    between atoms: _534  and  _535
REMARK  219  A    between atoms: _534  and  _537
REMARK  220  A    between atoms: _537  and  _538
REMARK  221  A    between atoms: _541  and  _543
REMARK  222  A    between atoms: _543  and  _544
REMARK  223  A    between atoms: _546  and  _548
REMARK  224  A    between atoms: _548  and  _549
REMARK  225  A    between atoms: _548  and  _551
REMARK  226  A    between atoms: _551  and  _552
REMARK  227  A    between atoms: _552  and  _553
REMARK  228  A    between atoms: _553  and  _554
REMARK  229  A    between atoms: _563  and  _565
REMARK  230  A    between atoms: _565  and  _566
REMARK  231  A    between atoms: _565  and  _568
REMARK  232  A    between atoms: _568  and  _569
REMARK                            x       y       z     vdW  Elec       q    Type
REMARK                         _______ _______ _______ _____ _____    ______ ____
ROOT
ATOM      1  C   GLY A   5      -9.614  21.872  24.633  0.00  0.00    +0.243 C 
ATOM      2  O   GLY A   5      -8.497  21.473  24.350  0.00  0.00    -0.273 OA
ATOM      3  N   ALA A   6     -10.672  21.522  23.924  0.00  0.00    -0.297 N 
ATOM      4  H   ALA A   6     -11.609  21.948  24.072  0.00  0.00    +0.150 HD
ENDROOT
BRANCH   3   5
ATOM      5  CA  ALA A   6     -10.430  20.497  22.921  0.00  0.00    +0.149 C 
ATOM      6  CB  ALA A   6     -11.619  19.537  22.839  0.00  0.00    +0.031 C 
BRANCH   5   7
ATOM      7  C   ALA A   6     -10.277  21.149  21.602  0.00  0.00    +0.241 C 
ATOM      8  O   ALA A   6     -11.146  21.850  21.123  0.00  0.00    -0.273 OA
ATOM      9  N   ASP A   7      -9.146  20.904  20.965  0.00  0.00    -0.297 N 
ATOM     10  H   ASP A   7      -8.382  20.331  21.376  0.00  0.00    +0.150 HD
BRANCH   9  11
ATOM     11  CA  ASP A   7      -9.056  21.504  19.634  0.00  0.00    +0.160 C 
BRANCH  11  12
ATOM     12  C   ASP A   7     -10.064  20.908  18.704  0.00  0.00    +0.241 C 
ATOM     13  N   ASP A   8     -10.246  19.604  18.882  0.00  0.00    -0.297 N 
ATOM     14  H   ASP A   8      -9.840  19.116  19.705  0.00  0.00    +0.150 HD
ATOM     15  O   ASP A   7     -10.631  21.577  17.860  0.00  0.00    -0.273 OA
BRANCH  13  16
ATOM     16  CA  ASP A   8     -11.030  18.876  17.893  0.00  0.00    +0.160 C 
BRANCH  16  17
ATOM     17  C   ASP A   8     -12.248  18.263  18.520  0.00  0.00    +0.241 C 
ATOM     18  O   ASP A   8     -12.256  18.009  19.712  0.00  0.00    -0.273 OA
ATOM     19  N   THR A   9     -13.266  18.059  17.697  0.00  0.00    -0.295 N 
ATOM     20  H   THR A   9     -13.180  18.381  16.712  0.00  0.00    +0.150 HD
BRANCH  19  21
ATOM     21  CA  THR A   9     -14.505  17.401  18.111  0.00  0.00    +0.176 C 
BRANCH  21  22
ATOM     22  C   THR A   9     -14.371  15.909  17.948  0.00  0.00    +0.243 C 
ATOM     23  N   VAL A  10     -14.691  15.182  19.005  0.00  0.00    -0.298 N 
ATOM     24  H   VAL A  10     -15.127  15.641  19.830  0.00  0.00    +0.150 HD
ATOM     25  O   THR A   9     -13.954  15.450  16.899  0.00  0.00    -0.273 OA
BRANCH  23  26
ATOM     26  CA  VAL A  10     -14.439  13.739  19.029  0.00  0.00    +0.137 C 
BRANCH  26  27
ATOM     27  CB  VAL A  10     -13.329  13.343  20.019  0.00  0.00    +0.026 C 
ATOM     28  CG2 VAL A  10     -12.228  14.390  20.112  0.00  0.00    +0.002 C 
ATOM     29  CG1 VAL A  10     -12.741  11.989  19.671  0.00  0.00    +0.002 C 
ENDBRANCH  26  27
BRANCH  26  30
ATOM     30  C   VAL A  10     -15.671  13.076  19.544  0.00  0.00    +0.227 C 
ATOM     31  O   VAL A  10     -16.156  13.404  20.614  0.00  0.00    -0.286 OA
ENDBRANCH  26  30
ENDBRANCH  23  26
ENDBRANCH  21  22
BRANCH  21  32
ATOM     32  CB  THR A   9     -15.635  17.943  17.207  0.00  0.00    +0.137 C 
ATOM     33  CG2 THR A   9     -16.985  17.243  17.407  0.00  0.00    +0.034 C 
BRANCH  32  34
ATOM     34  OG1 THR A   9     -15.752  19.361  17.429  0.00  0.00    -0.382 OA
ATOM     35  HG1 THR A   9     -14.895  19.801  17.202  0.00  0.00    +0.210 HD
ENDBRANCH  32  34
ENDBRANCH  21  32
ENDBRANCH  19  21
ENDBRANCH  16  17
BRANCH  16  36
ATOM     36  CB  ASP A   8     -10.150  17.785  17.323  0.00  0.00    +0.143 C 
BRANCH  36  37
ATOM     37  CG  ASP A   8      -8.988  18.346  16.516  0.00  0.00    +0.367 C 
ATOM     38  OD2 ASP A   8      -7.958  17.679  16.434  0.00  0.00    -0.246 OA
ATOM     39  OD1 ASP A   8      -9.114  19.433  15.956  0.00  0.00    -0.246 OA
ENDBRANCH  36  37
ENDBRANCH  16  36
ENDBRANCH  13  16
ENDBRANCH  11  12
BRANCH  11  40
ATOM     40  CB  ASP A   7      -7.696  21.283  18.965  0.00  0.00    +0.143 C 
BRANCH  40  41
ATOM     41  CG  ASP A   7      -6.538  21.806  19.787  0.00  0.00    +0.367 C 
ATOM     42  OD2 ASP A   7      -6.755  22.630  20.687  0.00  0.00    -0.246 OA
ATOM     43  OD1 ASP A   7      -5.413  21.373  19.511  0.00  0.00    -0.246 OA
ENDBRANCH  40  41
ENDBRANCH  11  40
ENDBRANCH   9  11
ENDBRANCH   5   7
ENDBRANCH   3   5
BRANCH   1  44
ATOM     44  CA  GLY A   5      -9.901  22.729  25.846  0.00  0.00    +0.176 C 
BRANCH  44  46
ATOM     45  C   THR A   4     -11.553  24.311  25.248  0.00  0.00    +0.243 C 
ATOM     46  N   GLY A   5     -11.280  23.184  25.882  0.00  0.00    -0.295 N 
ATOM     47  H   GLY A   5     -12.017  22.648  26.383  0.00  0.00    +0.150 HD
ATOM     48  O   THR A   4     -10.702  24.943  24.647  0.00  0.00    -0.273 OA
BRANCH  45  49
ATOM     49  CA  THR A   4     -13.004  24.738  25.339  0.00  0.00    +0.176 C 
BRANCH  49  51
ATOM     50  C   ASP A   3     -14.133  22.629  25.026  0.00  0.00    +0.241 C 
ATOM     51  N   THR A   4     -13.941  23.700  25.777  0.00  0.00    -0.295 N 
ATOM     52  H   THR A   4     -14.453  23.805  26.676  0.00  0.00    +0.150 HD
ATOM     53  O   ASP A   3     -13.518  22.426  24.001  0.00  0.00    -0.273 OA
BRANCH  50  54
ATOM     54  CA  ASP A   3     -15.129  21.663  25.577  0.00  0.00    +0.160 C 
BRANCH  54  57
ATOM     55  C   LEU A   2     -17.418  21.951  25.627  0.00  0.00    +0.241 C 
ATOM     56  O   LEU A   2     -17.342  22.321  26.788  0.00  0.00    -0.273 OA
ATOM     57  N   ASP A   3     -16.374  21.753  24.873  0.00  0.00    -0.297 N 
ATOM     58  H   ASP A   3     -16.439  21.667  23.839  0.00  0.00    +0.150 HD
BRANCH  55  59
ATOM     59  CA  LEU A   2     -18.747  21.699  25.003  0.00  0.00    +0.149 C 
BRANCH  59  61
ATOM     60  C   LEU A   1     -19.047  19.316  25.333  0.00  0.00    +0.238 C 
ATOM     61  N   LEU A   2     -19.376  20.558  25.693  0.00  0.00    -0.297 N 
ATOM     62  H   LEU A   2     -20.068  20.719  26.452  0.00  0.00    +0.150 HD
ATOM     63  O   LEU A   1     -18.260  19.109  24.416  0.00  0.00    -0.274 OA
BRANCH  60  64
ATOM     64  CA  LEU A   1     -19.770  18.196  26.097  0.00  0.00    +0.145 C 
BRANCH  64  65
ATOM     65  N   LEU A   1     -20.364  17.246  25.163  0.00  0.00    -0.238 NA
ATOM     66  H   LEU A   1     -19.770  16.475  24.796  0.00  0.00    +0.142 HD
ENDBRANCH  64  65
BRANCH  64  67
ATOM     67  CB  LEU A   1     -18.825  17.336  26.948  0.00  0.00    +0.026 C 
BRANCH  67  68
ATOM     68  CG  LEU A   1     -17.975  17.938  28.076  0.00  0.00    +0.002 C 
ATOM     69  CD2 LEU A   1     -18.772  18.162  29.356  0.00  0.00    +0.000 C 
ATOM     70  CD1 LEU A   1     -16.811  16.979  28.345  0.00  0.00    +0.000 C 
ENDBRANCH  67  68
ENDBRANCH  64  67
ENDBRANCH  60  64
ENDBRANCH  59  61
BRANCH  59  71
ATOM     71  CB  LEU A   2     -19.507  22.999  25.260  0.00  0.00    +0.029 C 
BRANCH  71  72
ATOM     72  CG  LEU A   2     -20.820  23.271  24.525  0.00  0.00    +0.002 C 
ATOM     73  CD2 LEU A   2     -21.970  23.415  25.521  0.00  0.00    +0.000 C 
ATOM     74  CD1 LEU A   2     -21.063  22.308  23.374  0.00  0.00    +0.000 C 
ENDBRANCH  71  72
ENDBRANCH  59  71
ENDBRANCH  55  59
ENDBRANCH  54  57
BRANCH  54  75
ATOM     75  CB  ASP A   3     -14.736  20.204  25.431  0.00  0.00    +0.143 C 
BRANCH  75  76
ATOM     76  CG  ASP A   3     -13.452  19.814  26.113  0.00  0.00    +0.367 C 
ATOM     77  OD2 ASP A   3     -12.820  20.647  26.752  0.00  0.00    -0.246 OA
ATOM     78  OD1 ASP A   3     -13.082  18.656  25.985  0.00  0.00    -0.246 OA
ENDBRANCH  75  76
ENDBRANCH  54  75
ENDBRANCH  50  54
ENDBRANCH  49  51
BRANCH  49  79
ATOM     79  CB  THR A   4     -13.176  25.970  26.259  0.00  0.00    +0.137 C 
ATOM     80  CG2 THR A   4     -14.626  26.432  26.168  0.00  0.00    +0.034 C 
BRANCH  79  81
ATOM     81  OG1 THR A   4     -12.858  25.698  27.635  0.00  0.00    -0.382 OA
ATOM     82  HG1 THR A   4     -11.915  25.403  27.703  0.00  0.00    +0.210 HD
ENDBRANCH  79  81
ENDBRANCH  49  79
ENDBRANCH  45  49
ENDBRANCH  44  46
ENDBRANCH   1  44
TORSDOF 35
REMARK  Name = ../refined-set-2016/1qbr/1qbr_pocket.pdb
REMARK  232 active torsions:
REMARK  status: ('A' for Active; 'I' for Inactive)
REMARK    1  A    between atoms: _1  and  _3
REMARK    2  A    between atoms: _3  and  _4
REMARK    3  A    between atoms: _3  and  _6
REMARK    4  A    between atoms: _6  and  _7
REMARK    5  A    between atoms: _7  and  _8
REMARK    6  A    between atoms: _8  and  _9
REMARK    7  A    between atoms: _18  and  _20
REMARK    8  A    between atoms: _20  and  _21
REMARK    9  A    between atoms: _20  and  _23
REMARK   10  A    between atoms: _23  and  _24
REMARK   11  A    between atoms: _27  and  _29
REMARK   12  A    between atoms: _29  and  _30
REMARK   13  A    between atoms: _29  and  _32
REMARK   14  A    between atoms: _32  and  _33
REMARK   15  A    between atoms: _36  and  _38
REMARK   16  A    between atoms: _38  and  _39
REMARK   17  A    between atoms: _38  and  _41
REMARK   18  A    between atoms: _41  and  _42
REMARK   19  A    between atoms: _45  and  _47
REMARK   20  A    between atoms: _47  and  _48
REMARK   21  A    between atoms: _47  and  _50
REMARK   22  A    between atoms: _50  and  _51
REMARK   23  A    between atoms: _54  and  _56
REMARK   24  A    between atoms: _56  and  _57
REMARK   25  A    between atoms: _59  and  _61
REMARK   26  A    between atoms: _61  and  _62
REMARK   27  A    between atoms: _65  and  _67
REMARK   28  A    between atoms: _67  and  _68
REMARK   29  A    between atoms: _67  and  _70
REMARK   30  A    between atoms: _70  and  _71
REMARK   31  A    between atoms: _74  and  _76
REMARK   32  A    between atoms: _76  and  _77
REMARK   33  A    between atoms: _76  and  _79
REMARK   34  A    between atoms: _79  and  _80
REMARK   35  A    between atoms: _83  and  _85
REMARK   36  A    between atoms: _85  and  _86
REMARK   37  A    between atoms: _85  and  _88
REMARK   38  A    between atoms: _88  and  _89
REMARK   39  A    between atoms: _92  and  _94
REMARK   40  A    between atoms: _94  and  _95
REMARK   41  A    between atoms: _94  and  _97
REMARK   42  A    between atoms: _100  and  _102
REMARK   43  A    between atoms: _102  and  _103
REMARK   44  A    between atoms: _102  and  _105
REMARK   45  A    between atoms: _105  and  _106
REMARK   46  A    between atoms: _109  and  _111
REMARK   47  A    between atoms: _111  and  _112
REMARK   48  A    between atoms: _111  and  _114
REMARK   49  A    between atoms: _114  and  _115
REMARK   50  A    between atoms: _115  and  _116
REMARK   51  A    between atoms: _116  and  _117
REMARK   52  A    between atoms: _117  and  _118
REMARK   53  A    between atoms: _122  and  _124
REMARK   54  A    between atoms: _124  and  _125
REMARK   55  A    between atoms: _124  and  _127
REMARK   56  A    between atoms: _127  and  _128
REMARK   57  A    between atoms: _128  and  _129
REMARK   58  A    between atoms: _131  and  _133
REMARK   59  A    between atoms: _133  and  _134
REMARK   60  A    between atoms: _133  and  _136
REMARK   61  A    between atoms: _136  and  _137
REMARK   62  A    between atoms: _140  and  _142
REMARK   63  A    between atoms: _142  and  _143
REMARK   64  A    between atoms: _145  and  _147
REMARK   65  A    between atoms: _147  and  _148
REMARK   66  A    between atoms: _150  and  _152
REMARK   67  A    between atoms: _152  and  _153
REMARK   68  A    between atoms: _152  and  _155
REMARK   69  A    between atoms: _155  and  _156
REMARK   70  A    between atoms: _159  and  _161
REMARK   71  A    between atoms: _161  and  _162
REMARK   72  A    between atoms: _164  and  _166
REMARK   73  A    between atoms: _166  and  _167
REMARK   74  A    between atoms: _169  and  _171
REMARK   75  A    between atoms: _171  and  _172
REMARK   76  A    between atoms: _171  and  _174
REMARK   77  A    between atoms: _174  and  _175
REMARK   78  A    between atoms: _181  and  _183
REMARK   79  A    between atoms: _183  and  _184
REMARK   80  A    between atoms: _183  and  _186
REMARK   81  A    between atoms: _186  and  _187
REMARK   82  A    between atoms: _190  and  _192
REMARK   83  A    between atoms: _192  and  _193
REMARK   84  A    between atoms: _192  and  _195
REMARK   85  A    between atoms: _195  and  _196
REMARK   86  A    between atoms: _200  and  _201
REMARK   87  A    between atoms: _206  and  _208
REMARK   88  A    between atoms: _208  and  _209
REMARK   89  A    between atoms: _208  and  _211
REMARK   90  A    between atoms: _211  and  _212
REMARK   91  A    between atoms: _216  and  _217
REMARK   92  A    between atoms: _222  and  _224
REMARK   93  A    between atoms: _224  and  _225
REMARK   94  A    between atoms: _224  and  _227
REMARK   95  A    between atoms: _230  and  _232
REMARK   96  A    between atoms: _232  and  _233
REMARK   97  A    between atoms: _232  and  _235
REMARK   98  A    between atoms: _235  and  _236
REMARK   99  A    between atoms: _241  and  _243
REMARK  100  A    between atoms: _243  and  _244
REMARK  101  A    between atoms: _243  and  _246
REMARK  102  A    between atoms: _246  and  _247
REMARK  103  A    between atoms: _250  and  _252
REMARK  104  A    between atoms: _252  and  _253
REMARK  105  A    between atoms: _252  and  _255
REMARK  106  A    between atoms: _255  and  _256
REMARK  107  A    between atoms: _259  and  _261
REMARK  108  A    between atoms: _261  and  _262
REMARK  109  A    between atoms: _264  and  _266
REMARK  110  A    between atoms: _266  and  _267
REMARK  111  A    between atoms: _266  and  _269
REMARK  112  A    between atoms: _269  and  _270
REMARK  113  A    between atoms: _270  and  _271
REMARK  114  A    between atoms: _271  and  _272
REMARK  115  A    between atoms: _281  and  _283
REMARK  116  A    between atoms: _283  and  _284
REMARK  117  A    between atoms: _283  and  _286
REMARK  118  A    between atoms: _286  and  _287
REMARK  119  A    between atoms: _292  and  _294
REMARK  120  A    between atoms: _294  and  _295
REMARK  121  A    between atoms: _294  and  _297
REMARK  122  A    between atoms: _297  and  _298
REMARK  123  A    between atoms: _298  and  _299
REMARK  124  A    between atoms: _299  and  _300
REMARK  125  A    between atoms: _309  and  _311
REMARK  126  A    between atoms: _311  and  _312
REMARK  127  A    between atoms: _311  and  _314
REMARK  128  A    between atoms: _314  and  _315
REMARK  129  A    between atoms: _318  and  _320
REMARK  130  A    between atoms: _320  and  _321
REMARK  131  A    between atoms: _320  and  _323
REMARK  132  A    between atoms: _323  and  _324
REMARK  133  A    between atoms: _327  and  _329
REMARK  134  A    between atoms: _329  and  _330
REMARK  135  A    between atoms: _329  and  _332
REMARK  136  A    between atoms: _332  and  _333
REMARK  137  A    between atoms: _336  and  _338
REMARK  138  A    between atoms: _338  and  _339
REMARK  139  A    between atoms: _338  and  _341
REMARK  140  A    between atoms: _341  and  _342
REMARK  141  A    between atoms: _345  and  _347
REMARK  142  A    between atoms: _347  and  _348
REMARK  143  A    between atoms: _350  and  _352
REMARK  144  A    between atoms: _352  and  _353
REMARK  145  A    between atoms: _356  and  _358
REMARK  146  A    between atoms: _358  and  _359
REMARK  147  A    between atoms: _358  and  _361
REMARK  148  A    between atoms: _361  and  _362
REMARK  149  A    between atoms: _365  and  _367
REMARK  150  A    between atoms: _367  and  _368
REMARK  151  A    between atoms: _367  and  _370
REMARK  152  A    between atoms: _370  and  _371
REMARK  153  A    between atoms: _374  and  _376
REMARK  154  A    between atoms: _376  and  _377
REMARK  155  A    between atoms: _376  and  _379
REMARK  156  A    between atoms: _379  and  _380
REMARK  157  A    between atoms: _383  and  _385
REMARK  158  A    between atoms: _385  and  _386
REMARK  159  A    between atoms: _385  and  _388
REMARK  160  A    between atoms: _391  and  _393
REMARK  161  A    between atoms: _393  and  _394
REMARK  162  A    between atoms: _393  and  _396
REMARK  163  A    between atoms: _396  and  _397
REMARK  164  A    between atoms: _397  and  _398
REMARK  165  A    between atoms: _398  and  _399
REMARK  166  A    between atoms: _399  and  _400
REMARK  167  A    between atoms: _404  and  _406
REMARK  168  A    between atoms: _406  and  _407
REMARK  169  A    between atoms: _406  and  _409
REMARK  170  A    between atoms: _409  and  _410
REMARK  171  A    between atoms: _410  and  _411
REMARK  172  A    between atoms: _413  and  _415
REMARK  173  A    between atoms: _415  and  _416
REMARK  174  A    between atoms: _415  and  _418
REMARK  175  A    between atoms: _418  and  _419
REMARK  176  A    between atoms: _422  and  _424
REMARK  177  A    between atoms: _424  and  _425
REMARK  178  A    between atoms: _427  and  _429
REMARK  179  A    between atoms: _429  and  _430
REMARK  180  A    between atoms: _432  and  _434
REMARK  181  A    between atoms: _434  and  _435
REMARK  182  A    between atoms: _434  and  _437
REMARK  183  A    between atoms: _437  and  _438
REMARK  184  A    between atoms: _441  and  _443
REMARK  185  A    between atoms: _443  and  _444
REMARK  186  A    between atoms: _446  and  _448
REMARK  187  A    between atoms: _448  and  _449
REMARK  188  A    between atoms: _451  and  _453
REMARK  189  A    between atoms: _453  and  _454
REMARK  190  A    between atoms: _453  and  _456
REMARK  191  A    between atoms: _456  and  _457
REMARK  192  A    between atoms: _463  and  _465
REMARK  193  A    between atoms: _465  and  _466
REMARK  194  A    between atoms: _465  and  _468
REMARK  195  A    between atoms: _468  and  _469
REMARK  196  A    between atoms: _472  and  _474
REMARK  197  A    between atoms: _474  and  _475
REMARK  198  A    between atoms: _474  and  _477
REMARK  199  A    between atoms: _477  and  _478
REMARK  200  A    between atoms: _482  and  _483
REMARK  201  A    between atoms: _488  and  _490
REMARK  202  A    between atoms: _490  and  _491
REMARK  203  A    between atoms: _490  and  _493
REMARK  204  A    between atoms: _493  and  _494
REMARK  205  A    between atoms: _498  and  _499
REMARK  206  A    between atoms: _504  and  _506
REMARK  207  A    between atoms: _506  and  _507
REMARK  208  A    between atoms: _506  and  _509
REMARK  209  A    between atoms: _512  and  _514
REMARK  210  A    between atoms: _514  and  _515
REMARK  211  A    between atoms: _514  and  _517
REMARK  212  A    between atoms: _517  and  _518
REMARK  213  A    between atoms: _523  and  _525
REMARK  214  A    between atoms: _525  and  _526
REMARK  215  A    between atoms: _525  and  _528
REMARK  216  A    between atoms: _528  and  _529
REMARK  217  A    between atoms: _532  and  _534
REMARK  218  A    between atoms: _534  and  _535
REMARK  219  A    between atoms: _534  and  _537
REMARK  220  A    between atoms: _537  and  _538
REMARK  221  A    between atoms: _541  and  _543
REMARK  222  A    between atoms: _543  and  _544
REMARK  223  A    between atoms: _546  and  _548
REMARK  224  A    between atoms: _548  and  _549
REMARK  225  A    between atoms: _548  and  _551
REMARK  226  A    between atoms: _551  and  _552
REMARK  227  A    between atoms: _552  and  _553
REMARK  228  A    between atoms: _553  and  _554
REMARK  229  A    between atoms: _563  and  _565
REMARK  230  A    between atoms: _565  and  _566
REMARK  231  A    between atoms: _565  and  _568
REMARK  232  A    between atoms: _568  and  _569
REMARK                            x       y       z     vdW  Elec       q    Type
REMARK                         _______ _______ _______ _____ _____    ______ ____
ROOT
ATOM      1  C   GLY A   5      -4.562  13.336  26.706  0.00  0.00    +0.243 C 
ATOM      2  N   ILE A   6      -5.102  13.435  27.904  0.00  0.00    -0.297 N 
ATOM      3  H   ILE A   6      -6.056  13.818  28.063  0.00  0.00    +0.150 HD
ATOM      4  O   GLY A   5      -3.373  13.139  26.531  0.00  0.00    -0.273 OA
ENDROOT
BRANCH   2   5
ATOM      5  CA  ILE A   6      -4.242  12.959  28.995  0.00  0.00    +0.149 C 
BRANCH   5   6
ATOM      6  C   ILE A   6      -4.464  11.481  29.038  0.00  0.00    +0.241 C 
ATOM      7  N   GLY A   7      -3.575  10.750  29.665  0.00  0.00    -0.295 N 
ATOM      8  H   GLY A   7      -2.814  11.166  30.239  0.00  0.00    +0.150 HD
ATOM      9  O   ILE A   6      -5.461  11.016  28.531  0.00  0.00    -0.273 OA
BRANCH   7  10
ATOM     10  CA  GLY A   7      -3.731   9.316  29.499  0.00  0.00    +0.176 C 
BRANCH  10  11
ATOM     11  C   GLY A   7      -2.774   8.947  28.413  0.00  0.00    +0.243 C 
ATOM     12  O   GLY A   7      -1.658   8.518  28.668  0.00  0.00    -0.273 OA
ATOM     13  N   GLY A   8      -3.207   9.216  27.199  0.00  0.00    -0.295 N 
ATOM     14  H   GLY A   8      -4.152   9.622  27.041  0.00  0.00    +0.150 HD
BRANCH  13  15
ATOM     15  CA  GLY A   8      -2.315   8.925  26.085  0.00  0.00    +0.176 C 
BRANCH  15  16
ATOM     16  C   GLY A   8      -2.907   9.415  24.802  0.00  0.00    +0.243 C 
ATOM     17  O   GLY A   8      -3.274  10.571  24.679  0.00  0.00    -0.273 OA
ATOM     18  N   PHE A   9      -3.001   8.521  23.834  0.00  0.00    -0.297 N 
ATOM     19  H   PHE A   9      -2.748   7.526  24.001  0.00  0.00    +0.150 HD
BRANCH  18  20
ATOM     20  CA  PHE A   9      -3.465   8.961  22.533  0.00  0.00    +0.153 C 
BRANCH  20  21
ATOM     21  C   PHE A   9      -4.419   7.945  21.990  0.00  0.00    +0.241 C 
ATOM     22  O   PHE A   9      -4.300   6.761  22.271  0.00  0.00    -0.273 OA
ATOM     23  N   ILE A  10      -5.376   8.406  21.222  0.00  0.00    -0.298 N 
ATOM     24  H   ILE A  10      -5.504   9.422  21.040  0.00  0.00    +0.150 HD
BRANCH  23  25
ATOM     25  CA  ILE A  10      -6.250   7.388  20.640  0.00  0.00    +0.137 C 
BRANCH  25  26
ATOM     26  C   ILE A  10      -6.237   7.486  19.141  0.00  0.00    +0.227 C 
ATOM     27  O   ILE A  10      -5.750   8.447  18.564  0.00  0.00    -0.286 OA
ENDBRANCH  25  26
BRANCH  25  28
ATOM     28  CB  ILE A  10      -7.682   7.533  21.164  0.00  0.00    +0.026 C 
ATOM     29  CG2 ILE A  10      -7.746   7.106  22.624  0.00  0.00    +0.002 C 
BRANCH  28  30
ATOM     30  CG1 ILE A  10      -8.269   8.937  20.988  0.00  0.00    +0.002 C 
ATOM     31  CD1 ILE A  10      -9.717   9.052  21.479  0.00  0.00    +0.000 C 
ENDBRANCH  28  30
ENDBRANCH  25  28
ENDBRANCH  23  25
ENDBRANCH  20  21
BRANCH  20  32
ATOM     32  CB  PHE A   9      -2.250   9.138  21.609  0.00  0.00    +0.055 C 
BRANCH  32  33
ATOM     33  CG  PHE A   9      -1.486   7.843  21.398  0.00  0.00    -0.020 A 
ATOM     34  CD2 PHE A   9      -0.641   7.331  22.414  0.00  0.00    -0.004 A 
ATOM     35  CE2 PHE A   9       0.063   6.124  22.199  0.00  0.00    -0.000 A 
ATOM     36  CZ  PHE A   9      -0.074   5.434  20.976  0.00  0.00    -0.000 A 
ATOM     37  CE1 PHE A   9      -0.917   5.943  19.963  0.00  0.00    -0.000 A 
ATOM     38  CD1 PHE A   9      -1.625   7.149  20.172  0.00  0.00    -0.004 A 
ENDBRANCH  32  33
ENDBRANCH  20  32
ENDBRANCH  18  20
ENDBRANCH  15  16
ENDBRANCH  13  15
ENDBRANCH  10  11
ENDBRANCH   7  10
ENDBRANCH   5   6
BRANCH   5  39
ATOM     39  CB  ILE A   6      -4.660  13.491  30.359  0.00  0.00    +0.027 C 
ATOM     40  CG2 ILE A   6      -4.375  14.976  30.579  0.00  0.00    +0.002 C 
BRANCH  39  41
ATOM     41  CG1 ILE A   6      -6.111  13.229  30.667  0.00  0.00    +0.002 C 
ATOM     42  CD1 ILE A   6      -6.274  13.051  32.164  0.00  0.00    +0.000 C 
ENDBRANCH  39  41
ENDBRANCH   5  39
ENDBRANCH   2   5
BRANCH   1  43
ATOM     43  CA  GLY A   5      -5.465  13.484  25.528  0.00  0.00    +0.176 C 
BRANCH  43  45
ATOM     44  C   GLY A   4      -4.703  13.641  23.201  0.00  0.00    +0.243 C 
ATOM     45  N   GLY A   5      -4.622  13.122  24.401  0.00  0.00    -0.295 N 
ATOM     46  H   GLY A   5      -3.897  12.393  24.560  0.00  0.00    +0.150 HD
ATOM     47  O   GLY A   4      -5.475  14.544  22.893  0.00  0.00    -0.273 OA
BRANCH  44  48
ATOM     48  CA  GLY A   4      -3.746  12.983  22.211  0.00  0.00    +0.176 C 
BRANCH  48  50
ATOM     49  C   ILE A   3      -4.596  12.232  20.115  0.00  0.00    +0.241 C 
ATOM     50  N   GLY A   4      -4.122  13.222  20.829  0.00  0.00    -0.295 N 
ATOM     51  H   GLY A   4      -4.016  14.168  20.411  0.00  0.00    +0.150 HD
ATOM     52  O   ILE A   3      -4.633  11.078  20.517  0.00  0.00    -0.273 OA
BRANCH  49  53
ATOM     53  CA  ILE A   3      -5.062  12.571  18.721  0.00  0.00    +0.149 C 
BRANCH  53  55
ATOM     54  C   MET A   2      -4.462  11.310  16.750  0.00  0.00    +0.241 C 
ATOM     55  N   ILE A   3      -5.021  11.338  17.944  0.00  0.00    -0.297 N 
ATOM     56  H   ILE A   3      -5.438  10.470  18.336  0.00  0.00    +0.150 HD
ATOM     57  O   MET A   2      -4.031  12.293  16.169  0.00  0.00    -0.273 OA
BRANCH  54  58
ATOM     58  CA  MET A   2      -4.392   9.958  16.118  0.00  0.00    +0.149 C 
BRANCH  58  60
ATOM     59  C   LYS A   1      -5.575   9.447  14.069  0.00  0.00    +0.238 C 
ATOM     60  N   MET A   2      -4.578  10.081  14.672  0.00  0.00    -0.297 N 
ATOM     61  H   MET A   2      -3.926  10.668  14.114  0.00  0.00    +0.150 HD
ATOM     62  O   LYS A   1      -6.274   8.603  14.618  0.00  0.00    -0.274 OA
BRANCH  59  63
ATOM     63  CA  LYS A   1      -5.822   9.823  12.626  0.00  0.00    +0.145 C 
BRANCH  63  64
ATOM     64  N   LYS A   1      -6.552   8.716  11.994  0.00  0.00    -0.238 NA
ATOM     65  H   LYS A   1      -7.185   8.119  12.563  0.00  0.00    +0.142 HD
ENDBRANCH  63  64
BRANCH  63  66
ATOM     66  CB  LYS A   1      -6.710  11.079  12.548  0.00  0.00    +0.026 C 
BRANCH  66  67
ATOM     67  CG  LYS A   1      -6.094  12.428  12.947  0.00  0.00    -0.000 C 
BRANCH  67  68
ATOM     68  CD  LYS A   1      -7.165  13.458  13.312  0.00  0.00    -0.024 C 
BRANCH  68  69
ATOM     69  CE  LYS A   1      -6.663  14.865  13.658  0.00  0.00    -0.086 C 
BRANCH  69  70
ATOM     70  NZ  LYS A   1      -6.244  15.561  12.430  0.00  0.00    +0.380 N 
ATOM     71  HZ1 LYS A   1      -5.905  16.514  12.672  0.00  0.00    -0.089 HD
ATOM     72  HZ2 LYS A   1      -5.479  15.025  11.973  0.00  0.00    -0.089 HD
ATOM     73  HZ3 LYS A   1      -7.053  15.634  11.781  0.00  0.00    -0.089 HD
ENDBRANCH  69  70
ENDBRANCH  68  69
ENDBRANCH  67  68
ENDBRANCH  66  67
ENDBRANCH  63  66
ENDBRANCH  59  63
ENDBRANCH  58  60
BRANCH  58  74
ATOM     74  CB  MET A   2      -3.023   9.385  16.492  0.00  0.00    +0.041 C 
BRANCH  74  75
ATOM     75  CG  MET A   2      -3.047   7.866  16.390  0.00  0.00    +0.060 C 
BRANCH  75  76
ATOM     76  SD  MET A   2      -1.401   7.216  16.591  0.00  0.00    -0.139 S 
ATOM     77  CE  MET A   2      -1.769   5.495  16.223  0.00  0.00    +0.069 C 
ENDBRANCH  75  76
ENDBRANCH  74  75
ENDBRANCH  58  74
ENDBRANCH  54  58
ENDBRANCH  53  55
BRANCH  53  78
ATOM     78  CB  ILE A   3      -6.478  13.192  18.700  0.00  0.00    +0.027 C 
ATOM     79  CG2 ILE A   3      -6.878  13.613  17.287  0.00  0.00    +0.002 C 
BRANCH  78  80
ATOM     80  CG1 ILE A   3      -7.602  12.333  19.266  0.00  0.00    +0.002 C 
ATOM     81  CD1 ILE A   3      -8.885  13.151  19.416  0.00  0.00    +0.000 C 
ENDBRANCH  78  80
ENDBRANCH  53  78
ENDBRANCH  49  53
ENDBRANCH  48  50
ENDBRANCH  44  48
ENDBRANCH  43  45
ENDBRANCH   1  43
TORSDOF 36
REMARK  Name = ../refined-set-2016/1qbr/1qbr_pocket.pdb
REMARK  232 active torsions:
REMARK  status: ('A' for Active; 'I' for Inactive)
REMARK    1  A    between atoms: _1  and  _3
REMARK    2  A    between atoms: _3  and  _4
REMARK    3  A    between atoms: _3  and  _6
REMARK    4  A    between atoms: _6  and  _7
REMARK    5  A    between atoms: _7  and  _8
REMARK    6  A    between atoms: _8  and  _9
REMARK    7  A    between atoms: _18  and  _20
REMARK    8  A    between atoms: _20  and  _21
REMARK    9  A    between atoms: _20  and  _23
REMARK   10  A    between atoms: _23  and  _24
REMARK   11  A    between atoms: _27  and  _29
REMARK   12  A    between atoms: _29  and  _30
REMARK   13  A    between atoms: _29  and  _32
REMARK   14  A    between atoms: _32  and  _33
REMARK   15  A    between atoms: _36  and  _38
REMARK   16  A    between atoms: _38  and  _39
REMARK   17  A    between atoms: _38  and  _41
REMARK   18  A    between atoms: _41  and  _42
REMARK   19  A    between atoms: _45  and  _47
REMARK   20  A    between atoms: _47  and  _48
REMARK   21  A    between atoms: _47  and  _50
REMARK   22  A    between atoms: _50  and  _51
REMARK   23  A    between atoms: _54  and  _56
REMARK   24  A    between atoms: _56  and  _57
REMARK   25  A    between atoms: _59  and  _61
REMARK   26  A    between atoms: _61  and  _62
REMARK   27  A    between atoms: _65  and  _67
REMARK   28  A    between atoms: _67  and  _68
REMARK   29  A    between atoms: _67  and  _70
REMARK   30  A    between atoms: _70  and  _71
REMARK   31  A    between atoms: _74  and  _76
REMARK   32  A    between atoms: _76  and  _77
REMARK   33  A    between atoms: _76  and  _79
REMARK   34  A    between atoms: _79  and  _80
REMARK   35  A    between atoms: _83  and  _85
REMARK   36  A    between atoms: _85  and  _86
REMARK   37  A    between atoms: _85  and  _88
REMARK   38  A    between atoms: _88  and  _89
REMARK   39  A    between atoms: _92  and  _94
REMARK   40  A    between atoms: _94  and  _95
REMARK   41  A    between atoms: _94  and  _97
REMARK   42  A    between atoms: _100  and  _102
REMARK   43  A    between atoms: _102  and  _103
REMARK   44  A    between atoms: _102  and  _105
REMARK   45  A    between atoms: _105  and  _106
REMARK   46  A    between atoms: _109  and  _111
REMARK   47  A    between atoms: _111  and  _112
REMARK   48  A    between atoms: _111  and  _114
REMARK   49  A    between atoms: _114  and  _115
REMARK   50  A    between atoms: _115  and  _116
REMARK   51  A    between atoms: _116  and  _117
REMARK   52  A    between atoms: _117  and  _118
REMARK   53  A    between atoms: _122  and  _124
REMARK   54  A    between atoms: _124  and  _125
REMARK   55  A    between atoms: _124  and  _127
REMARK   56  A    between atoms: _127  and  _128
REMARK   57  A    between atoms: _128  and  _129
REMARK   58  A    between atoms: _131  and  _133
REMARK   59  A    between atoms: _133  and  _134
REMARK   60  A    between atoms: _133  and  _136
REMARK   61  A    between atoms: _136  and  _137
REMARK   62  A    between atoms: _140  and  _142
REMARK   63  A    between atoms: _142  and  _143
REMARK   64  A    between atoms: _145  and  _147
REMARK   65  A    between atoms: _147  and  _148
REMARK   66  A    between atoms: _150  and  _152
REMARK   67  A    between atoms: _152  and  _153
REMARK   68  A    between atoms: _152  and  _155
REMARK   69  A    between atoms: _155  and  _156
REMARK   70  A    between atoms: _159  and  _161
REMARK   71  A    between atoms: _161  and  _162
REMARK   72  A    between atoms: _164  and  _166
REMARK   73  A    between atoms: _166  and  _167
REMARK   74  A    between atoms: _169  and  _171
REMARK   75  A    between atoms: _171  and  _172
REMARK   76  A    between atoms: _171  and  _174
REMARK   77  A    between atoms: _174  and  _175
REMARK   78  A    between atoms: _181  and  _183
REMARK   79  A    between atoms: _183  and  _184
REMARK   80  A    between atoms: _183  and  _186
REMARK   81  A    between atoms: _186  and  _187
REMARK   82  A    between atoms: _190  and  _192
REMARK   83  A    between atoms: _192  and  _193
REMARK   84  A    between atoms: _192  and  _195
REMARK   85  A    between atoms: _195  and  _196
REMARK   86  A    between atoms: _200  and  _201
REMARK   87  A    between atoms: _206  and  _208
REMARK   88  A    between atoms: _208  and  _209
REMARK   89  A    between atoms: _208  and  _211
REMARK   90  A    between atoms: _211  and  _212
REMARK   91  A    between atoms: _216  and  _217
REMARK   92  A    between atoms: _222  and  _224
REMARK   93  A    between atoms: _224  and  _225
REMARK   94  A    between atoms: _224  and  _227
REMARK   95  A    between atoms: _230  and  _232
REMARK   96  A    between atoms: _232  and  _233
REMARK   97  A    between atoms: _232  and  _235
REMARK   98  A    between atoms: _235  and  _236
REMARK   99  A    between atoms: _241  and  _243
REMARK  100  A    between atoms: _243  and  _244
REMARK  101  A    between atoms: _243  and  _246
REMARK  102  A    between atoms: _246  and  _247
REMARK  103  A    between atoms: _250  and  _252
REMARK  104  A    between atoms: _252  and  _253
REMARK  105  A    between atoms: _252  and  _255
REMARK  106  A    between atoms: _255  and  _256
REMARK  107  A    between atoms: _259  and  _261
REMARK  108  A    between atoms: _261  and  _262
REMARK  109  A    between atoms: _264  and  _266
REMARK  110  A    between atoms: _266  and  _267
REMARK  111  A    between atoms: _266  and  _269
REMARK  112  A    between atoms: _269  and  _270
REMARK  113  A    between atoms: _270  and  _271
REMARK  114  A    between atoms: _271  and  _272
REMARK  115  A    between atoms: _281  and  _283
REMARK  116  A    between atoms: _283  and  _284
REMARK  117  A    between atoms: _283  and  _286
REMARK  118  A    between atoms: _286  and  _287
REMARK  119  A    between atoms: _292  and  _294
REMARK  120  A    between atoms: _294  and  _295
REMARK  121  A    between atoms: _294  and  _297
REMARK  122  A    between atoms: _297  and  _298
REMARK  123  A    between atoms: _298  and  _299
REMARK  124  A    between atoms: _299  and  _300
REMARK  125  A    between atoms: _309  and  _311
REMARK  126  A    between atoms: _311  and  _312
REMARK  127  A    between atoms: _311  and  _314
REMARK  128  A    between atoms: _314  and  _315
REMARK  129  A    between atoms: _318  and  _320
REMARK  130  A    between atoms: _320  and  _321
REMARK  131  A    between atoms: _320  and  _323
REMARK  132  A    between atoms: _323  and  _324
REMARK  133  A    between atoms: _327  and  _329
REMARK  134  A    between atoms: _329  and  _330
REMARK  135  A    between atoms: _329  and  _332
REMARK  136  A    between atoms: _332  and  _333
REMARK  137  A    between atoms: _336  and  _338
REMARK  138  A    between atoms: _338  and  _339
REMARK  139  A    between atoms: _338  and  _341
REMARK  140  A    between atoms: _341  and  _342
REMARK  141  A    between atoms: _345  and  _347
REMARK  142  A    between atoms: _347  and  _348
REMARK  143  A    between atoms: _350  and  _352
REMARK  144  A    between atoms: _352  and  _353
REMARK  145  A    between atoms: _356  and  _358
REMARK  146  A    between atoms: _358  and  _359
REMARK  147  A    between atoms: _358  and  _361
REMARK  148  A    between atoms: _361  and  _362
REMARK  149  A    between atoms: _365  and  _367
REMARK  150  A    between atoms: _367  and  _368
REMARK  151  A    between atoms: _367  and  _370
REMARK  152  A    between atoms: _370  and  _371
REMARK  153  A    between atoms: _374  and  _376
REMARK  154  A    between atoms: _376  and  _377
REMARK  155  A    between atoms: _376  and  _379
REMARK  156  A    between atoms: _379  and  _380
REMARK  157  A    between atoms: _383  and  _385
REMARK  158  A    between atoms: _385  and  _386
REMARK  159  A    between atoms: _385  and  _388
REMARK  160  A    between atoms: _391  and  _393
REMARK  161  A    between atoms: _393  and  _394
REMARK  162  A    between atoms: _393  and  _396
REMARK  163  A    between atoms: _396  and  _397
REMARK  164  A    between atoms: _397  and  _398
REMARK  165  A    between atoms: _398  and  _399
REMARK  166  A    between atoms: _399  and  _400
REMARK  167  A    between atoms: _404  and  _406
REMARK  168  A    between atoms: _406  and  _407
REMARK  169  A    between atoms: _406  and  _409
REMARK  170  A    between atoms: _409  and  _410
REMARK  171  A    between atoms: _410  and  _411
REMARK  172  A    between atoms: _413  and  _415
REMARK  173  A    between atoms: _415  and  _416
REMARK  174  A    between atoms: _415  and  _418
REMARK  175  A    between atoms: _418  and  _419
REMARK  176  A    between atoms: _422  and  _424
REMARK  177  A    between atoms: _424  and  _425
REMARK  178  A    between atoms: _427  and  _429
REMARK  179  A    between atoms: _429  and  _430
REMARK  180  A    between atoms: _432  and  _434
REMARK  181  A    between atoms: _434  and  _435
REMARK  182  A    between atoms: _434  and  _437
REMARK  183  A    between atoms: _437  and  _438
REMARK  184  A    between atoms: _441  and  _443
REMARK  185  A    between atoms: _443  and  _444
REMARK  186  A    between atoms: _446  and  _448
REMARK  187  A    between atoms: _448  and  _449
REMARK  188  A    between atoms: _451  and  _453
REMARK  189  A    between atoms: _453  and  _454
REMARK  190  A    between atoms: _453  and  _456
REMARK  191  A    between atoms: _456  and  _457
REMARK  192  A    between atoms: _463  and  _465
REMARK  193  A    between atoms: _465  and  _466
REMARK  194  A    between atoms: _465  and  _468
REMARK  195  A    between atoms: _468  and  _469
REMARK  196  A    between atoms: _472  and  _474
REMARK  197  A    between atoms: _474  and  _475
REMARK  198  A    between atoms: _474  and  _477
REMARK  199  A    between atoms: _477  and  _478
REMARK  200  A    between atoms: _482  and  _483
REMARK  201  A    between atoms: _488  and  _490
REMARK  202  A    between atoms: _490  and  _491
REMARK  203  A    between atoms: _490  and  _493
REMARK  204  A    between atoms: _493  and  _494
REMARK  205  A    between atoms: _498  and  _499
REMARK  206  A    between atoms: _504  and  _506
REMARK  207  A    between atoms: _506  and  _507
REMARK  208  A    between atoms: _506  and  _509
REMARK  209  A    between atoms: _512  and  _514
REMARK  210  A    between atoms: _514  and  _515
REMARK  211  A    between atoms: _514  and  _517
REMARK  212  A    between atoms: _517  and  _518
REMARK  213  A    between atoms: _523  and  _525
REMARK  214  A    between atoms: _525  and  _526
REMARK  215  A    between atoms: _525  and  _528
REMARK  216  A    between atoms: _528  and  _529
REMARK  217  A    between atoms: _532  and  _534
REMARK  218  A    between atoms: _534  and  _535
REMARK  219  A    between atoms: _534  and  _537
REMARK  220  A    between atoms: _537  and  _538
REMARK  221  A    between atoms: _541  and  _543
REMARK  222  A    between atoms: _543  and  _544
REMARK  223  A    between atoms: _546  and  _548
REMARK  224  A    between atoms: _548  and  _549
REMARK  225  A    between atoms: _548  and  _551
REMARK  226  A    between atoms: _551  and  _552
REMARK  227  A    between atoms: _552  and  _553
REMARK  228  A    between atoms: _553  and  _554
REMARK  229  A    between atoms: _563  and  _565
REMARK  230  A    between atoms: _565  and  _566
REMARK  231  A    between atoms: _565  and  _568
REMARK  232  A    between atoms: _568  and  _569
REMARK                            x       y       z     vdW  Elec       q    Type
REMARK                         _______ _______ _______ _____ _____    ______ ____
ROOT
ATOM      1  CA  LEU A   1     -13.335  12.395  14.717  0.00  0.00    +0.133 C 
ENDROOT
BRANCH   1   2
ATOM      2  N   LEU A   1     -14.165  13.578  14.567  0.00  0.00    -0.239 NA
ATOM      3  H   LEU A   1     -14.405  14.178  15.382  0.00  0.00    +0.142 HD
ENDBRANCH   1   2
BRANCH   1   4
ATOM      4  C   LEU A   1     -14.146  11.401  15.490  0.00  0.00    +0.224 C 
ATOM      5  O   LEU A   1     -14.745  11.765  16.489  0.00  0.00    -0.287 OA
ENDBRANCH   1   4
BRANCH   1   6
ATOM      6  CB  LEU A   1     -12.073  12.752  15.517  0.00  0.00    +0.025 C 
BRANCH   6   7
ATOM      7  CG  LEU A   1     -11.323  13.989  15.013  0.00  0.00    +0.002 C 
ATOM      8  CD2 LEU A   1     -10.180  14.290  15.950  0.00  0.00    +0.000 C 
ATOM      9  CD1 LEU A   1     -10.871  13.858  13.565  0.00  0.00    +0.000 C 
ENDBRANCH   6   7
ENDBRANCH   1   6
TORSDOF 4
REMARK  Name = ../refined-set-2016/1qbr/1qbr_pocket.pdb
REMARK  232 active torsions:
REMARK  status: ('A' for Active; 'I' for Inactive)
REMARK    1  A    between atoms: _1  and  _3
REMARK    2  A    between atoms: _3  and  _4
REMARK    3  A    between atoms: _3  and  _6
REMARK    4  A    between atoms: _6  and  _7
REMARK    5  A    between atoms: _7  and  _8
REMARK    6  A    between atoms: _8  and  _9
REMARK    7  A    between atoms: _18  and  _20
REMARK    8  A    between atoms: _20  and  _21
REMARK    9  A    between atoms: _20  and  _23
REMARK   10  A    between atoms: _23  and  _24
REMARK   11  A    between atoms: _27  and  _29
REMARK   12  A    between atoms: _29  and  _30
REMARK   13  A    between atoms: _29  and  _32
REMARK   14  A    between atoms: _32  and  _33
REMARK   15  A    between atoms: _36  and  _38
REMARK   16  A    between atoms: _38  and  _39
REMARK   17  A    between atoms: _38  and  _41
REMARK   18  A    between atoms: _41  and  _42
REMARK   19  A    between atoms: _45  and  _47
REMARK   20  A    between atoms: _47  and  _48
REMARK   21  A    between atoms: _47  and  _50
REMARK   22  A    between atoms: _50  and  _51
REMARK   23  A    between atoms: _54  and  _56
REMARK   24  A    between atoms: _56  and  _57
REMARK   25  A    between atoms: _59  and  _61
REMARK   26  A    between atoms: _61  and  _62
REMARK   27  A    between atoms: _65  and  _67
REMARK   28  A    between atoms: _67  and  _68
REMARK   29  A    between atoms: _67  and  _70
REMARK   30  A    between atoms: _70  and  _71
REMARK   31  A    between atoms: _74  and  _76
REMARK   32  A    between atoms: _76  and  _77
REMARK   33  A    between atoms: _76  and  _79
REMARK   34  A    between atoms: _79  and  _80
REMARK   35  A    between atoms: _83  and  _85
REMARK   36  A    between atoms: _85  and  _86
REMARK   37  A    between atoms: _85  and  _88
REMARK   38  A    between atoms: _88  and  _89
REMARK   39  A    between atoms: _92  and  _94
REMARK   40  A    between atoms: _94  and  _95
REMARK   41  A    between atoms: _94  and  _97
REMARK   42  A    between atoms: _100  and  _102
REMARK   43  A    between atoms: _102  and  _103
REMARK   44  A    between atoms: _102  and  _105
REMARK   45  A    between atoms: _105  and  _106
REMARK   46  A    between atoms: _109  and  _111
REMARK   47  A    between atoms: _111  and  _112
REMARK   48  A    between atoms: _111  and  _114
REMARK   49  A    between atoms: _114  and  _115
REMARK   50  A    between atoms: _115  and  _116
REMARK   51  A    between atoms: _116  and  _117
REMARK   52  A    between atoms: _117  and  _118
REMARK   53  A    between atoms: _122  and  _124
REMARK   54  A    between atoms: _124  and  _125
REMARK   55  A    between atoms: _124  and  _127
REMARK   56  A    between atoms: _127  and  _128
REMARK   57  A    between atoms: _128  and  _129
REMARK   58  A    between atoms: _131  and  _133
REMARK   59  A    between atoms: _133  and  _134
REMARK   60  A    between atoms: _133  and  _136
REMARK   61  A    between atoms: _136  and  _137
REMARK   62  A    between atoms: _140  and  _142
REMARK   63  A    between atoms: _142  and  _143
REMARK   64  A    between atoms: _145  and  _147
REMARK   65  A    between atoms: _147  and  _148
REMARK   66  A    between atoms: _150  and  _152
REMARK   67  A    between atoms: _152  and  _153
REMARK   68  A    between atoms: _152  and  _155
REMARK   69  A    between atoms: _155  and  _156
REMARK   70  A    between atoms: _159  and  _161
REMARK   71  A    between atoms: _161  and  _162
REMARK   72  A    between atoms: _164  and  _166
REMARK   73  A    between atoms: _166  and  _167
REMARK   74  A    between atoms: _169  and  _171
REMARK   75  A    between atoms: _171  and  _172
REMARK   76  A    between atoms: _171  and  _174
REMARK   77  A    between atoms: _174  and  _175
REMARK   78  A    between atoms: _181  and  _183
REMARK   79  A    between atoms: _183  and  _184
REMARK   80  A    between atoms: _183  and  _186
REMARK   81  A    between atoms: _186  and  _187
REMARK   82  A    between atoms: _190  and  _192
REMARK   83  A    between atoms: _192  and  _193
REMARK   84  A    between atoms: _192  and  _195
REMARK   85  A    between atoms: _195  and  _196
REMARK   86  A    between atoms: _200  and  _201
REMARK   87  A    between atoms: _206  and  _208
REMARK   88  A    between atoms: _208  and  _209
REMARK   89  A    between atoms: _208  and  _211
REMARK   90  A    between atoms: _211  and  _212
REMARK   91  A    between atoms: _216  and  _217
REMARK   92  A    between atoms: _222  and  _224
REMARK   93  A    between atoms: _224  and  _225
REMARK   94  A    between atoms: _224  and  _227
REMARK   95  A    between atoms: _230  and  _232
REMARK   96  A    between atoms: _232  and  _233
REMARK   97  A    between atoms: _232  and  _235
REMARK   98  A    between atoms: _235  and  _236
REMARK   99  A    between atoms: _241  and  _243
REMARK  100  A    between atoms: _243  and  _244
REMARK  101  A    between atoms: _243  and  _246
REMARK  102  A    between atoms: _246  and  _247
REMARK  103  A    between atoms: _250  and  _252
REMARK  104  A    between atoms: _252  and  _253
REMARK  105  A    between atoms: _252  and  _255
REMARK  106  A    between atoms: _255  and  _256
REMARK  107  A    between atoms: _259  and  _261
REMARK  108  A    between atoms: _261  and  _262
REMARK  109  A    between atoms: _264  and  _266
REMARK  110  A    between atoms: _266  and  _267
REMARK  111  A    between atoms: _266  and  _269
REMARK  112  A    between atoms: _269  and  _270
REMARK  113  A    between atoms: _270  and  _271
REMARK  114  A    between atoms: _271  and  _272
REMARK  115  A    between atoms: _281  and  _283
REMARK  116  A    between atoms: _283  and  _284
REMARK  117  A    between atoms: _283  and  _286
REMARK  118  A    between atoms: _286  and  _287
REMARK  119  A    between atoms: _292  and  _294
REMARK  120  A    between atoms: _294  and  _295
REMARK  121  A    between atoms: _294  and  _297
REMARK  122  A    between atoms: _297  and  _298
REMARK  123  A    between atoms: _298  and  _299
REMARK  124  A    between atoms: _299  and  _300
REMARK  125  A    between atoms: _309  and  _311
REMARK  126  A    between atoms: _311  and  _312
REMARK  127  A    between atoms: _311  and  _314
REMARK  128  A    between atoms: _314  and  _315
REMARK  129  A    between atoms: _318  and  _320
REMARK  130  A    between atoms: _320  and  _321
REMARK  131  A    between atoms: _320  and  _323
REMARK  132  A    between atoms: _323  and  _324
REMARK  133  A    between atoms: _327  and  _329
REMARK  134  A    between atoms: _329  and  _330
REMARK  135  A    between atoms: _329  and  _332
REMARK  136  A    between atoms: _332  and  _333
REMARK  137  A    between atoms: _336  and  _338
REMARK  138  A    between atoms: _338  and  _339
REMARK  139  A    between atoms: _338  and  _341
REMARK  140  A    between atoms: _341  and  _342
REMARK  141  A    between atoms: _345  and  _347
REMARK  142  A    between atoms: _347  and  _348
REMARK  143  A    between atoms: _350  and  _352
REMARK  144  A    between atoms: _352  and  _353
REMARK  145  A    between atoms: _356  and  _358
REMARK  146  A    between atoms: _358  and  _359
REMARK  147  A    between atoms: _358  and  _361
REMARK  148  A    between atoms: _361  and  _362
REMARK  149  A    between atoms: _365  and  _367
REMARK  150  A    between atoms: _367  and  _368
REMARK  151  A    between atoms: _367  and  _370
REMARK  152  A    between atoms: _370  and  _371
REMARK  153  A    between atoms: _374  and  _376
REMARK  154  A    between atoms: _376  and  _377
REMARK  155  A    between atoms: _376  and  _379
REMARK  156  A    between atoms: _379  and  _380
REMARK  157  A    between atoms: _383  and  _385
REMARK  158  A    between atoms: _385  and  _386
REMARK  159  A    between atoms: _385  and  _388
REMARK  160  A    between atoms: _391  and  _393
REMARK  161  A    between atoms: _393  and  _394
REMARK  162  A    between atoms: _393  and  _396
REMARK  163  A    between atoms: _396  and  _397
REMARK  164  A    between atoms: _397  and  _398
REMARK  165  A    between atoms: _398  and  _399
REMARK  166  A    between atoms: _399  and  _400
REMARK  167  A    between atoms: _404  and  _406
REMARK  168  A    between atoms: _406  and  _407
REMARK  169  A    between atoms: _406  and  _409
REMARK  170  A    between atoms: _409  and  _410
REMARK  171  A    between atoms: _410  and  _411
REMARK  172  A    between atoms: _413  and  _415
REMARK  173  A    between atoms: _415  and  _416
REMARK  174  A    between atoms: _415  and  _418
REMARK  175  A    between atoms: _418  and  _419
REMARK  176  A    between atoms: _422  and  _424
REMARK  177  A    between atoms: _424  and  _425
REMARK  178  A    between atoms: _427  and  _429
REMARK  179  A    between atoms: _429  and  _430
REMARK  180  A    between atoms: _432  and  _434
REMARK  181  A    between atoms: _434  and  _435
REMARK  182  A    between atoms: _434  and  _437
REMARK  183  A    between atoms: _437  and  _438
REMARK  184  A    between atoms: _441  and  _443
REMARK  185  A    between atoms: _443  and  _444
REMARK  186  A    between atoms: _446  and  _448
REMARK  187  A    between atoms: _448  and  _449
REMARK  188  A    between atoms: _451  and  _453
REMARK  189  A    between atoms: _453  and  _454
REMARK  190  A    between atoms: _453  and  _456
REMARK  191  A    between atoms: _456  and  _457
REMARK  192  A    between atoms: _463  and  _465
REMARK  193  A    between atoms: _465  and  _466
REMARK  194  A    between atoms: _465  and  _468
REMARK  195  A    between atoms: _468  and  _469
REMARK  196  A    between atoms: _472  and  _474
REMARK  197  A    between atoms: _474  and  _475
REMARK  198  A    between atoms: _474  and  _477
REMARK  199  A    between atoms: _477  and  _478
REMARK  200  A    between atoms: _482  and  _483
REMARK  201  A    between atoms: _488  and  _490
REMARK  202  A    between atoms: _490  and  _491
REMARK  203  A    between atoms: _490  and  _493
REMARK  204  A    between atoms: _493  and  _494
REMARK  205  A    between atoms: _498  and  _499
REMARK  206  A    between atoms: _504  and  _506
REMARK  207  A    between atoms: _506  and  _507
REMARK  208  A    between atoms: _506  and  _509
REMARK  209  A    between atoms: _512  and  _514
REMARK  210  A    between atoms: _514  and  _515
REMARK  211  A    between atoms: _514  and  _517
REMARK  212  A    between atoms: _517  and  _518
REMARK  213  A    between atoms: _523  and  _525
REMARK  214  A    between atoms: _525  and  _526
REMARK  215  A    between atoms: _525  and  _528
REMARK  216  A    between atoms: _528  and  _529
REMARK  217  A    between atoms: _532  and  _534
REMARK  218  A    between atoms: _534  and  _535
REMARK  219  A    between atoms: _534  and  _537
REMARK  220  A    between atoms: _537  and  _538
REMARK  221  A    between atoms: _541  and  _543
REMARK  222  A    between atoms: _543  and  _544
REMARK  223  A    between atoms: _546  and  _548
REMARK  224  A    between atoms: _548  and  _549
REMARK  225  A    between atoms: _548  and  _551
REMARK  226  A    between atoms: _551  and  _552
REMARK  227  A    between atoms: _552  and  _553
REMARK  228  A    between atoms: _553  and  _554
REMARK  229  A    between atoms: _563  and  _565
REMARK  230  A    between atoms: _565  and  _566
REMARK  231  A    between atoms: _565  and  _568
REMARK  232  A    between atoms: _568  and  _569
REMARK                            x       y       z     vdW  Elec       q    Type
REMARK                         _______ _______ _______ _____ _____    ______ ____
ROOT
ATOM      1  CA  ILE A   6     -16.783  16.260  22.837  0.00  0.00    +0.149 C 
ENDROOT
BRANCH   1   2
ATOM      2  C   ILE A   6     -16.930  17.170  21.650  0.00  0.00    +0.241 C 
ATOM      3  N   ILE A   7     -17.481  18.349  21.902  0.00  0.00    -0.297 N 
ATOM      4  H   ILE A   7     -17.918  18.550  22.824  0.00  0.00    +0.150 HD
ATOM      5  O   ILE A   6     -16.593  16.803  20.535  0.00  0.00    -0.273 OA
BRANCH   3   6
ATOM      6  CA  ILE A   7     -17.456  19.357  20.846  0.00  0.00    +0.149 C 
BRANCH   6   7
ATOM      7  C   ILE A   7     -16.330  20.275  21.173  0.00  0.00    +0.241 C 
ATOM      8  O   ILE A   7     -16.307  20.810  22.266  0.00  0.00    -0.273 OA
ATOM      9  N   GLY A   8     -15.416  20.432  20.246  0.00  0.00    -0.295 N 
ATOM     10  H   GLY A   8     -15.492  19.960  19.322  0.00  0.00    +0.150 HD
BRANCH   9  11
ATOM     11  CA  GLY A   8     -14.293  21.295  20.569  0.00  0.00    +0.176 C 
BRANCH  11  12
ATOM     12  C   GLY A   8     -14.226  22.535  19.722  0.00  0.00    +0.243 C 
ATOM     13  N   ARG A   9     -13.031  23.080  19.692  0.00  0.00    -0.297 N 
ATOM     14  H   ARG A   9     -12.189  22.535  19.968  0.00  0.00    +0.150 HD
ATOM     15  O   GLY A   8     -15.173  23.025  19.120  0.00  0.00    -0.273 OA
BRANCH  13  16
ATOM     16  CA  ARG A   9     -12.916  24.454  19.266  0.00  0.00    +0.149 C 
BRANCH  16  17
ATOM     17  C   ARG A   9     -13.188  24.638  17.819  0.00  0.00    +0.241 C 
ATOM     18  O   ARG A   9     -13.781  25.629  17.417  0.00  0.00    -0.273 OA
ATOM     19  N   ASN A  10     -12.815  23.628  17.039  0.00  0.00    -0.298 N 
ATOM     20  H   ASN A  10     -12.282  22.816  17.411  0.00  0.00    +0.150 HD
BRANCH  19  21
ATOM     21  CA  ASN A  10     -13.195  23.722  15.629  0.00  0.00    +0.146 C 
BRANCH  21  22
ATOM     22  C   ASN A  10     -14.690  23.868  15.366  0.00  0.00    +0.227 C 
ATOM     23  O   ASN A  10     -15.107  24.417  14.358  0.00  0.00    -0.286 OA
ENDBRANCH  21  22
BRANCH  21  24
ATOM     24  CB  ASN A  10     -12.659  22.537  14.823  0.00  0.00    +0.112 C 
BRANCH  24  25
ATOM     25  CG  ASN A  10     -13.483  21.303  15.084  0.00  0.00    +0.222 C 
ATOM     26  OD1 ASN A  10     -13.802  20.955  16.209  0.00  0.00    -0.275 OA
ATOM     27  ND2 ASN A  10     -13.845  20.656  13.996  0.00  0.00    -0.329 N 
ATOM     28 HD21 ASN A  10     -14.433  19.801  14.071  0.00  0.00    +0.145 HD
ATOM     29 HD22 ASN A  10     -13.543  20.999  13.062  0.00  0.00    +0.145 HD
ENDBRANCH  24  25
ENDBRANCH  21  24
ENDBRANCH  19  21
ENDBRANCH  16  17
BRANCH  16  30
ATOM     30  CB  ARG A   9     -11.552  24.999  19.589  0.00  0.00    +0.033 C 
BRANCH  30  31
ATOM     31  CG  ARG A   9     -11.390  25.356  21.062  0.00  0.00    +0.045 C 
BRANCH  31  32
ATOM     32  CD  ARG A   9     -10.159  26.254  21.269  0.00  0.00    +0.174 C 
BRANCH  32  33
ATOM     33  NE  ARG A   9      -8.942  25.600  20.795  0.00  0.00    -0.265 N 
ATOM     34  HE  ARG A   9      -8.658  24.693  21.217  0.00  0.00    +0.259 HD
ATOM     35  CZ  ARG A   9      -8.181  26.136  19.832  0.00  0.00    +0.342 C 
ATOM     36  NH2 ARG A   9      -7.065  25.539  19.472  0.00  0.00    -0.292 N 
ATOM     37 HH21 ARG A   9      -6.776  24.654  19.935  0.00  0.00    +0.255 HD
ATOM     38 HH22 ARG A   9      -6.472  25.953  18.725  0.00  0.00    +0.255 HD
ATOM     39  NH1 ARG A   9      -8.505  27.254  19.205  0.00  0.00    -0.292 N 
ATOM     40 HH11 ARG A   9      -9.382  27.754  19.454  0.00  0.00    +0.255 HD
ATOM     41 HH12 ARG A   9      -7.883  27.633  18.463  0.00  0.00    +0.255 HD
ENDBRANCH  32  33
ENDBRANCH  31  32
ENDBRANCH  30  31
ENDBRANCH  16  30
ENDBRANCH  13  16
ENDBRANCH  11  12
ENDBRANCH   9  11
ENDBRANCH   6   7
BRANCH   6  42
ATOM     42  CB  ILE A   7     -18.729  20.194  20.832  0.00  0.00    +0.027 C 
ATOM     43  CG2 ILE A   7     -18.681  21.184  19.659  0.00  0.00    +0.002 C 
BRANCH  42  44
ATOM     44  CG1 ILE A   7     -20.005  19.363  20.757  0.00  0.00    +0.002 C 
ATOM     45  CD1 ILE A   7     -20.093  18.562  19.454  0.00  0.00    +0.000 C 
ENDBRANCH  42  44
ENDBRANCH   6  42
ENDBRANCH   3   6
ENDBRANCH   1   2
BRANCH   1  48
ATOM     46  C   ASN A   5     -18.260  14.475  23.252  0.00  0.00    +0.241 C 
ATOM     47  O   ASN A   5     -18.757  15.103  24.179  0.00  0.00    -0.273 OA
ATOM     48  N   ILE A   6     -17.355  14.977  22.475  0.00  0.00    -0.297 N 
ATOM     49  H   ILE A   6     -17.047  14.476  21.617  0.00  0.00    +0.150 HD
BRANCH  46  50
ATOM     50  CA  ASN A   5     -18.668  13.065  22.965  0.00  0.00    +0.158 C 
BRANCH  50  53
ATOM     51  C   VAL A   4     -17.705  11.969  24.801  0.00  0.00    +0.241 C 
ATOM     52  O   VAL A   4     -16.617  12.140  24.287  0.00  0.00    -0.273 OA
ATOM     53  N   ASN A   5     -18.816  12.389  24.247  0.00  0.00    -0.297 N 
ATOM     54  H   ASN A   5     -19.744  12.249  24.694  0.00  0.00    +0.150 HD
BRANCH  51  55
ATOM     55  CA  VAL A   4     -17.834  11.164  26.065  0.00  0.00    +0.149 C 
BRANCH  55  58
ATOM     56  C   PRO A   3     -16.863   9.030  26.642  0.00  0.00    +0.241 C 
ATOM     57  O   PRO A   3     -17.863   8.753  27.283  0.00  0.00    -0.273 OA
ATOM     58  N   VAL A   4     -16.744  10.188  26.001  0.00  0.00    -0.297 N 
ATOM     59  H   VAL A   4     -15.883  10.400  25.458  0.00  0.00    +0.150 HD
BRANCH  56  62
ATOM     60  C   THR A   2     -14.601   8.253  24.431  0.00  0.00    +0.246 C 
ATOM     61  N   PRO A   3     -14.559   8.499  25.741  0.00  0.00    -0.272 N 
ATOM     62  CA  PRO A   3     -15.686   8.057  26.564  0.00  0.00    +0.152 C 
ATOM     63  CB  PRO A   3     -14.979   7.843  27.903  0.00  0.00    +0.031 C 
ATOM     64  CG  PRO A   3     -13.863   8.883  27.972  0.00  0.00    +0.024 C 
ATOM     65  CD  PRO A   3     -13.452   9.059  26.518  0.00  0.00    +0.094 C 
ATOM     66  O   THR A   2     -15.493   7.612  23.898  0.00  0.00    -0.273 OA
BRANCH  60  67
ATOM     67  CA  THR A   2     -13.454   8.776  23.589  0.00  0.00    +0.176 C 
BRANCH  67  70
ATOM     68  C   PRO A   1     -12.522   6.820  22.583  0.00  0.00    +0.239 C 
ATOM     69  O   PRO A   1     -11.611   6.775  23.399  0.00  0.00    -0.274 OA
ATOM     70  N   THR A   2     -13.343   7.847  22.484  0.00  0.00    -0.295 N 
ATOM     71  H   THR A   2     -13.905   7.988  21.621  0.00  0.00    +0.150 HD
BRANCH  68  73
ATOM     72  N   PRO A   1     -12.655   6.014  20.189  0.00  0.00    -0.210 NA
ATOM     73  CA  PRO A   1     -12.850   5.686  21.605  0.00  0.00    +0.149 C 
ATOM     74  CB  PRO A   1     -11.950   4.456  21.723  0.00  0.00    +0.028 C 
ATOM     75  CG  PRO A   1     -10.754   4.781  20.827  0.00  0.00    +0.021 C 
ATOM     76  CD  PRO A   1     -11.418   5.473  19.640  0.00  0.00    +0.089 C 
ENDBRANCH  68  73
ENDBRANCH  67  70
BRANCH  67  77
ATOM     77  CB  THR A   2     -13.772  10.141  22.986  0.00  0.00    +0.137 C 
ATOM     78  CG2 THR A   2     -14.990  10.099  22.077  0.00  0.00    +0.034 C 
BRANCH  77  79
ATOM     79  OG1 THR A   2     -13.963  11.115  24.023  0.00  0.00    -0.382 OA
ATOM     80  HG1 THR A   2     -14.715  10.835  24.603  0.00  0.00    +0.210 HD
ENDBRANCH  77  79
ENDBRANCH  67  77
ENDBRANCH  60  67
ENDBRANCH  56  62
ENDBRANCH  55  58
BRANCH  55  81
ATOM     81  CB  VAL A   4     -17.727  12.027  27.366  0.00  0.00    +0.027 C 
ATOM     82  CG2 VAL A   4     -16.407  12.755  27.520  0.00  0.00    +0.002 C 
ATOM     83  CG1 VAL A   4     -18.861  13.040  27.488  0.00  0.00    +0.002 C 
ENDBRANCH  55  81
ENDBRANCH  51  55
ENDBRANCH  50  53
BRANCH  50  84
ATOM     84  CB  ASN A   5     -20.007  13.165  22.242  0.00  0.00    +0.114 C 
BRANCH  84  85
ATOM     85  CG  ASN A   5     -20.629  11.824  21.973  0.00  0.00    +0.222 C 
ATOM     86  ND2 ASN A   5     -21.842  11.681  22.495  0.00  0.00    -0.329 N 
ATOM     87 HD21 ASN A   5     -22.274  12.462  23.029  0.00  0.00    +0.145 HD
ATOM     88 HD22 ASN A   5     -22.360  10.788  22.370  0.00  0.00    +0.145 HD
ATOM     89  OD1 ASN A   5     -20.064  10.948  21.335  0.00  0.00    -0.275 OA
ENDBRANCH  84  85
ENDBRANCH  50  84
ENDBRANCH  46  50
ENDBRANCH   1  48
BRANCH   1  90
ATOM     90  CB  ILE A   6     -15.306  16.003  23.211  0.00  0.00    +0.027 C 
ATOM     91  CG2 ILE A   6     -14.493  17.297  23.294  0.00  0.00    +0.002 C 
BRANCH  90  92
ATOM     92  CG1 ILE A   6     -15.208  15.246  24.538  0.00  0.00    +0.002 C 
ATOM     93  CD1 ILE A   6     -13.804  14.769  24.891  0.00  0.00    +0.000 C 
ENDBRANCH  90  92
ENDBRANCH   1  90
TORSDOF 33
