REMARK  Name = ../refined-set-2016/3l7a/3l7a_pocket.pdb
REMARK  272 active torsions:
REMARK  status: ('A' for Active; 'I' for Inactive)
REMARK    1  A    between atoms: _1  and  _3
REMARK    2  A    between atoms: _3  and  _4
REMARK    3  A    between atoms: _3  and  _6
REMARK    4  A    between atoms: _6  and  _7
REMARK    5  A    between atoms: _12  and  _13
REMARK    6  A    between atoms: _15  and  _17
REMARK    7  A    between atoms: _17  and  _18
REMARK    8  A    between atoms: _17  and  _20
REMARK    9  A    between atoms: _20  and  _21
REMARK   10  A    between atoms: _24  and  _26
REMARK   11  A    between atoms: _26  and  _27
REMARK   12  A    between atoms: _26  and  _29
REMARK   13  A    between atoms: _29  and  _30
REMARK   14  A    between atoms: _30  and  _31
REMARK   15  A    between atoms: _34  and  _36
REMARK   16  A    between atoms: _36  and  _37
REMARK   17  A    between atoms: _36  and  _39
REMARK   18  A    between atoms: _39  and  _40
REMARK   19  A    between atoms: _45  and  _46
REMARK   20  A    between atoms: _48  and  _50
REMARK   21  A    between atoms: _50  and  _51
REMARK   22  A    between atoms: _50  and  _53
REMARK   23  A    between atoms: _53  and  _54
REMARK   24  A    between atoms: _59  and  _61
REMARK   25  A    between atoms: _61  and  _62
REMARK   26  A    between atoms: _64  and  _66
REMARK   27  A    between atoms: _66  and  _67
REMARK   28  A    between atoms: _69  and  _71
REMARK   29  A    between atoms: _71  and  _72
REMARK   30  A    between atoms: _71  and  _74
REMARK   31  A    between atoms: _74  and  _75
REMARK   32  A    between atoms: _78  and  _80
REMARK   33  A    between atoms: _80  and  _81
REMARK   34  A    between atoms: _83  and  _85
REMARK   35  A    between atoms: _85  and  _86
REMARK   36  A    between atoms: _85  and  _88
REMARK   37  A    between atoms: _88  and  _89
REMARK   38  A    between atoms: _89  and  _90
REMARK   39  A    between atoms: _90  and  _91
REMARK   40  A    between atoms: _100  and  _102
REMARK   41  A    between atoms: _102  and  _103
REMARK   42  A    between atoms: _102  and  _105
REMARK   43  A    between atoms: _105  and  _106
REMARK   44  A    between atoms: _109  and  _111
REMARK   45  A    between atoms: _111  and  _112
REMARK   46  A    between atoms: _115  and  _117
REMARK   47  A    between atoms: _117  and  _118
REMARK   48  A    between atoms: _117  and  _120
REMARK   49  A    between atoms: _120  and  _121
REMARK   50  A    between atoms: _127  and  _129
REMARK   51  A    between atoms: _129  and  _130
REMARK   52  A    between atoms: _129  and  _132
REMARK   53  A    between atoms: _132  and  _133
REMARK   54  A    between atoms: _138  and  _139
REMARK   55  A    between atoms: _142  and  _143
REMARK   56  A    between atoms: _148  and  _150
REMARK   57  A    between atoms: _150  and  _151
REMARK   58  A    between atoms: _150  and  _153
REMARK   59  A    between atoms: _153  and  _154
REMARK   60  A    between atoms: _159  and  _161
REMARK   61  A    between atoms: _161  and  _162
REMARK   62  A    between atoms: _161  and  _164
REMARK   63  A    between atoms: _164  and  _165
REMARK   64  A    between atoms: _168  and  _170
REMARK   65  A    between atoms: _170  and  _171
REMARK   66  A    between atoms: _170  and  _173
REMARK   67  A    between atoms: _173  and  _174
REMARK   68  A    between atoms: _179  and  _181
REMARK   69  A    between atoms: _181  and  _182
REMARK   70  A    between atoms: _181  and  _184
REMARK   71  A    between atoms: _184  and  _185
REMARK   72  A    between atoms: _191  and  _193
REMARK   73  A    between atoms: _193  and  _194
REMARK   74  A    between atoms: _193  and  _196
REMARK   75  A    between atoms: _196  and  _197
REMARK   76  A    between atoms: _203  and  _205
REMARK   77  A    between atoms: _205  and  _206
REMARK   78  A    between atoms: _205  and  _208
REMARK   79  A    between atoms: _208  and  _209
REMARK   80  A    between atoms: _209  and  _210
REMARK   81  A    between atoms: _213  and  _215
REMARK   82  A    between atoms: _215  and  _216
REMARK   83  A    between atoms: _218  and  _220
REMARK   84  A    between atoms: _220  and  _221
REMARK   85  A    between atoms: _220  and  _223
REMARK   86  A    between atoms: _223  and  _224
REMARK   87  A    between atoms: _224  and  _225
REMARK   88  A    between atoms: _225  and  _226
REMARK   89  A    between atoms: _235  and  _237
REMARK   90  A    between atoms: _237  and  _238
REMARK   91  A    between atoms: _237  and  _240
REMARK   92  A    between atoms: _240  and  _241
REMARK   93  A    between atoms: _241  and  _242
REMARK   94  A    between atoms: _245  and  _247
REMARK   95  A    between atoms: _247  and  _248
REMARK   96  A    between atoms: _247  and  _250
REMARK   97  A    between atoms: _250  and  _251
REMARK   98  A    between atoms: _256  and  _258
REMARK   99  A    between atoms: _258  and  _259
REMARK  100  A    between atoms: _258  and  _261
REMARK  101  A    between atoms: _261  and  _262
REMARK  102  A    between atoms: _265  and  _267
REMARK  103  A    between atoms: _267  and  _268
REMARK  104  A    between atoms: _267  and  _270
REMARK  105  A    between atoms: _270  and  _271
REMARK  106  A    between atoms: _274  and  _276
REMARK  107  A    between atoms: _276  and  _277
REMARK  108  A    between atoms: _276  and  _279
REMARK  109  A    between atoms: _279  and  _280
REMARK  110  A    between atoms: _285  and  _287
REMARK  111  A    between atoms: _287  and  _288
REMARK  112  A    between atoms: _287  and  _290
REMARK  113  A    between atoms: _290  and  _291
REMARK  114  A    between atoms: _294  and  _296
REMARK  115  A    between atoms: _296  and  _297
REMARK  116  A    between atoms: _296  and  _299
REMARK  117  A    between atoms: _299  and  _300
REMARK  118  A    between atoms: _305  and  _307
REMARK  119  A    between atoms: _307  and  _308
REMARK  120  A    between atoms: _307  and  _310
REMARK  121  A    between atoms: _310  and  _311
REMARK  122  A    between atoms: _316  and  _318
REMARK  123  A    between atoms: _318  and  _319
REMARK  124  A    between atoms: _318  and  _321
REMARK  125  A    between atoms: _321  and  _322
REMARK  126  A    between atoms: _325  and  _327
REMARK  127  A    between atoms: _327  and  _328
REMARK  128  A    between atoms: _327  and  _330
REMARK  129  A    between atoms: _333  and  _335
REMARK  130  A    between atoms: _335  and  _336
REMARK  131  A    between atoms: _335  and  _338
REMARK  132  A    between atoms: _338  and  _339
REMARK  133  A    between atoms: _342  and  _344
REMARK  134  A    between atoms: _344  and  _345
REMARK  135  A    between atoms: _344  and  _347
REMARK  136  A    between atoms: _347  and  _348
REMARK  137  A    between atoms: _348  and  _349
REMARK  138  A    between atoms: _352  and  _354
REMARK  139  A    between atoms: _354  and  _355
REMARK  140  A    between atoms: _358  and  _360
REMARK  141  A    between atoms: _360  and  _361
REMARK  142  A    between atoms: _360  and  _363
REMARK  143  A    between atoms: _363  and  _364
REMARK  144  A    between atoms: _367  and  _369
REMARK  145  A    between atoms: _369  and  _370
REMARK  146  A    between atoms: _369  and  _372
REMARK  147  A    between atoms: _372  and  _373
REMARK  148  A    between atoms: _373  and  _374
REMARK  149  A    between atoms: _377  and  _379
REMARK  150  A    between atoms: _379  and  _380
REMARK  151  A    between atoms: _379  and  _382
REMARK  152  A    between atoms: _382  and  _383
REMARK  153  A    between atoms: _383  and  _384
REMARK  154  A    between atoms: _384  and  _385
REMARK  155  A    between atoms: _394  and  _396
REMARK  156  A    between atoms: _396  and  _397
REMARK  157  A    between atoms: _396  and  _399
REMARK  158  A    between atoms: _399  and  _400
REMARK  159  A    between atoms: _410  and  _412
REMARK  160  A    between atoms: _412  and  _413
REMARK  161  A    between atoms: _412  and  _415
REMARK  162  A    between atoms: _415  and  _416
REMARK  163  A    between atoms: _421  and  _423
REMARK  164  A    between atoms: _423  and  _424
REMARK  165  A    between atoms: _426  and  _428
REMARK  166  A    between atoms: _428  and  _429
REMARK  167  A    between atoms: _428  and  _431
REMARK  168  A    between atoms: _434  and  _436
REMARK  169  A    between atoms: _436  and  _437
REMARK  170  A    between atoms: _440  and  _442
REMARK  171  A    between atoms: _442  and  _443
REMARK  172  A    between atoms: _442  and  _445
REMARK  173  A    between atoms: _445  and  _446
REMARK  174  A    between atoms: _451  and  _453
REMARK  175  A    between atoms: _453  and  _454
REMARK  176  A    between atoms: _453  and  _456
REMARK  177  A    between atoms: _456  and  _457
REMARK  178  A    between atoms: _457  and  _458
REMARK  179  A    between atoms: _458  and  _459
REMARK  180  A    between atoms: _459  and  _460
REMARK  181  A    between atoms: _464  and  _466
REMARK  182  A    between atoms: _466  and  _467
REMARK  183  A    between atoms: _466  and  _469
REMARK  184  A    between atoms: _469  and  _470
REMARK  185  A    between atoms: _475  and  _477
REMARK  186  A    between atoms: _477  and  _478
REMARK  187  A    between atoms: _480  and  _482
REMARK  188  A    between atoms: _482  and  _483
REMARK  189  A    between atoms: _482  and  _485
REMARK  190  A    between atoms: _485  and  _486
REMARK  191  A    between atoms: _486  and  _487
REMARK  192  A    between atoms: _487  and  _488
REMARK  193  A    between atoms: _488  and  _489
REMARK  194  A    between atoms: _493  and  _495
REMARK  195  A    between atoms: _495  and  _496
REMARK  196  A    between atoms: _495  and  _498
REMARK  197  A    between atoms: _498  and  _499
REMARK  198  A    between atoms: _499  and  _500
REMARK  199  A    between atoms: _500  and  _501
REMARK  200  A    between atoms: _510  and  _512
REMARK  201  A    between atoms: _512  and  _513
REMARK  202  A    between atoms: _512  and  _515
REMARK  203  A    between atoms: _515  and  _516
REMARK  204  A    between atoms: _521  and  _522
REMARK  205  A    between atoms: _524  and  _526
REMARK  206  A    between atoms: _526  and  _527
REMARK  207  A    between atoms: _526  and  _529
REMARK  208  A    between atoms: _529  and  _530
REMARK  209  A    between atoms: _530  and  _531
REMARK  210  A    between atoms: _531  and  _532
REMARK  211  A    between atoms: _532  and  _533
REMARK  212  A    between atoms: _537  and  _539
REMARK  213  A    between atoms: _539  and  _540
REMARK  214  A    between atoms: _539  and  _542
REMARK  215  A    between atoms: _542  and  _543
REMARK  216  A    between atoms: _545  and  _547
REMARK  217  A    between atoms: _547  and  _548
REMARK  218  A    between atoms: _547  and  _550
REMARK  219  A    between atoms: _550  and  _551
REMARK  220  A    between atoms: _554  and  _556
REMARK  221  A    between atoms: _556  and  _557
REMARK  222  A    between atoms: _556  and  _559
REMARK  223  A    between atoms: _559  and  _560
REMARK  224  A    between atoms: _560  and  _561
REMARK  225  A    between atoms: _564  and  _566
REMARK  226  A    between atoms: _566  and  _567
REMARK  227  A    between atoms: _570  and  _572
REMARK  228  A    between atoms: _572  and  _573
REMARK  229  A    between atoms: _572  and  _575
REMARK  230  A    between atoms: _575  and  _576
REMARK  231  A    between atoms: _578  and  _580
REMARK  232  A    between atoms: _580  and  _581
REMARK  233  A    between atoms: _583  and  _585
REMARK  234  A    between atoms: _585  and  _586
REMARK  235  A    between atoms: _585  and  _588
REMARK  236  A    between atoms: _588  and  _589
REMARK  237  A    between atoms: _592  and  _594
REMARK  238  A    between atoms: _594  and  _595
REMARK  239  A    between atoms: _597  and  _599
REMARK  240  A    between atoms: _599  and  _600
REMARK  241  A    between atoms: _599  and  _602
REMARK  242  A    between atoms: _602  and  _603
REMARK  243  A    between atoms: _608  and  _610
REMARK  244  A    between atoms: _610  and  _611
REMARK  245  A    between atoms: _610  and  _613
REMARK  246  A    between atoms: _613  and  _614
REMARK  247  A    between atoms: _614  and  _615
REMARK  248  A    between atoms: _622  and  _623
REMARK  249  A    between atoms: _623  and  _639
REMARK  250  A    between atoms: _624  and  _626
REMARK  251  A    between atoms: _626  and  _627
REMARK  252  A    between atoms: _627  and  _628
REMARK  253  A    between atoms: _632  and  _634
REMARK  254  A    between atoms: _634  and  _635
REMARK  255  A    between atoms: _634  and  _642
REMARK  256  A    between atoms: _635  and  _636
REMARK  257  A    between atoms: _636  and  _637
REMARK  258  A    between atoms: _637  and  _638
REMARK  259  A    between atoms: _638  and  _639
REMARK  260  A    between atoms: _644  and  _646
REMARK  261  A    between atoms: _646  and  _647
REMARK  262  A    between atoms: _646  and  _649
REMARK  263  A    between atoms: _649  and  _650
REMARK  264  A    between atoms: _653  and  _655
REMARK  265  A    between atoms: _655  and  _656
REMARK  266  A    between atoms: _658  and  _660
REMARK  267  A    between atoms: _660  and  _661
REMARK  268  A    between atoms: _664  and  _666
REMARK  269  A    between atoms: _666  and  _667
REMARK  270  A    between atoms: _666  and  _669
REMARK  271  A    between atoms: _669  and  _670
REMARK  272  A    between atoms: _675  and  _676
REMARK                            x       y       z     vdW  Elec       q    Type
REMARK                         _______ _______ _______ _____ _____    ______ ____
ROOT
ATOM      1  CG  TYR A   1      33.504  11.351  36.505  0.00  0.00    -0.020 A 
ATOM      2  CD2 TYR A   1      33.079  12.682  36.602  0.00  0.00    -0.001 A 
ATOM      3  CE2 TYR A   1      33.144  13.541  35.496  0.00  0.00    +0.036 A 
ATOM      4  CZ  TYR A   1      33.631  13.064  34.294  0.00  0.00    +0.134 A 
ATOM      5  CE1 TYR A   1      34.054  11.749  34.178  0.00  0.00    +0.036 A 
ATOM      6  CD1 TYR A   1      33.992  10.904  35.279  0.00  0.00    -0.001 A 
ENDROOT
BRANCH   4   7
ATOM      7  OH  TYR A   1      33.699  13.890  33.187  0.00  0.00    -0.506 OA
ATOM      8  HH  TYR A   1      34.070  13.384  32.421  0.00  0.00    +0.292 HD
ENDBRANCH   4   7
BRANCH   1   9
ATOM      9  CB  TYR A   1      33.462  10.427  37.699  0.00  0.00    +0.051 C 
BRANCH   9  10
ATOM     10  CA  TYR A   1      34.796  10.352  38.442  0.00  0.00    +0.137 C 
BRANCH  10  11
ATOM     11  N   TYR A   1      34.830   9.198  39.329  0.00  0.00    -0.239 NA
ATOM     12  H   TYR A   1      33.981   8.958  39.880  0.00  0.00    +0.142 HD
ENDBRANCH  10  11
BRANCH  10  13
ATOM     13  C   TYR A   1      35.028  11.604  39.285  0.00  0.00    +0.224 C 
ATOM     14  O   TYR A   1      34.144  12.011  40.031  0.00  0.00    -0.287 OA
ENDBRANCH  10  13
ENDBRANCH   9  10
ENDBRANCH   1   9
TORSDOF 5
REMARK  Name = ../refined-set-2016/3l7a/3l7a_pocket.pdb
REMARK  272 active torsions:
REMARK  status: ('A' for Active; 'I' for Inactive)
REMARK    1  A    between atoms: _1  and  _3
REMARK    2  A    between atoms: _3  and  _4
REMARK    3  A    between atoms: _3  and  _6
REMARK    4  A    between atoms: _6  and  _7
REMARK    5  A    between atoms: _12  and  _13
REMARK    6  A    between atoms: _15  and  _17
REMARK    7  A    between atoms: _17  and  _18
REMARK    8  A    between atoms: _17  and  _20
REMARK    9  A    between atoms: _20  and  _21
REMARK   10  A    between atoms: _24  and  _26
REMARK   11  A    between atoms: _26  and  _27
REMARK   12  A    between atoms: _26  and  _29
REMARK   13  A    between atoms: _29  and  _30
REMARK   14  A    between atoms: _30  and  _31
REMARK   15  A    between atoms: _34  and  _36
REMARK   16  A    between atoms: _36  and  _37
REMARK   17  A    between atoms: _36  and  _39
REMARK   18  A    between atoms: _39  and  _40
REMARK   19  A    between atoms: _45  and  _46
REMARK   20  A    between atoms: _48  and  _50
REMARK   21  A    between atoms: _50  and  _51
REMARK   22  A    between atoms: _50  and  _53
REMARK   23  A    between atoms: _53  and  _54
REMARK   24  A    between atoms: _59  and  _61
REMARK   25  A    between atoms: _61  and  _62
REMARK   26  A    between atoms: _64  and  _66
REMARK   27  A    between atoms: _66  and  _67
REMARK   28  A    between atoms: _69  and  _71
REMARK   29  A    between atoms: _71  and  _72
REMARK   30  A    between atoms: _71  and  _74
REMARK   31  A    between atoms: _74  and  _75
REMARK   32  A    between atoms: _78  and  _80
REMARK   33  A    between atoms: _80  and  _81
REMARK   34  A    between atoms: _83  and  _85
REMARK   35  A    between atoms: _85  and  _86
REMARK   36  A    between atoms: _85  and  _88
REMARK   37  A    between atoms: _88  and  _89
REMARK   38  A    between atoms: _89  and  _90
REMARK   39  A    between atoms: _90  and  _91
REMARK   40  A    between atoms: _100  and  _102
REMARK   41  A    between atoms: _102  and  _103
REMARK   42  A    between atoms: _102  and  _105
REMARK   43  A    between atoms: _105  and  _106
REMARK   44  A    between atoms: _109  and  _111
REMARK   45  A    between atoms: _111  and  _112
REMARK   46  A    between atoms: _115  and  _117
REMARK   47  A    between atoms: _117  and  _118
REMARK   48  A    between atoms: _117  and  _120
REMARK   49  A    between atoms: _120  and  _121
REMARK   50  A    between atoms: _127  and  _129
REMARK   51  A    between atoms: _129  and  _130
REMARK   52  A    between atoms: _129  and  _132
REMARK   53  A    between atoms: _132  and  _133
REMARK   54  A    between atoms: _138  and  _139
REMARK   55  A    between atoms: _142  and  _143
REMARK   56  A    between atoms: _148  and  _150
REMARK   57  A    between atoms: _150  and  _151
REMARK   58  A    between atoms: _150  and  _153
REMARK   59  A    between atoms: _153  and  _154
REMARK   60  A    between atoms: _159  and  _161
REMARK   61  A    between atoms: _161  and  _162
REMARK   62  A    between atoms: _161  and  _164
REMARK   63  A    between atoms: _164  and  _165
REMARK   64  A    between atoms: _168  and  _170
REMARK   65  A    between atoms: _170  and  _171
REMARK   66  A    between atoms: _170  and  _173
REMARK   67  A    between atoms: _173  and  _174
REMARK   68  A    between atoms: _179  and  _181
REMARK   69  A    between atoms: _181  and  _182
REMARK   70  A    between atoms: _181  and  _184
REMARK   71  A    between atoms: _184  and  _185
REMARK   72  A    between atoms: _191  and  _193
REMARK   73  A    between atoms: _193  and  _194
REMARK   74  A    between atoms: _193  and  _196
REMARK   75  A    between atoms: _196  and  _197
REMARK   76  A    between atoms: _203  and  _205
REMARK   77  A    between atoms: _205  and  _206
REMARK   78  A    between atoms: _205  and  _208
REMARK   79  A    between atoms: _208  and  _209
REMARK   80  A    between atoms: _209  and  _210
REMARK   81  A    between atoms: _213  and  _215
REMARK   82  A    between atoms: _215  and  _216
REMARK   83  A    between atoms: _218  and  _220
REMARK   84  A    between atoms: _220  and  _221
REMARK   85  A    between atoms: _220  and  _223
REMARK   86  A    between atoms: _223  and  _224
REMARK   87  A    between atoms: _224  and  _225
REMARK   88  A    between atoms: _225  and  _226
REMARK   89  A    between atoms: _235  and  _237
REMARK   90  A    between atoms: _237  and  _238
REMARK   91  A    between atoms: _237  and  _240
REMARK   92  A    between atoms: _240  and  _241
REMARK   93  A    between atoms: _241  and  _242
REMARK   94  A    between atoms: _245  and  _247
REMARK   95  A    between atoms: _247  and  _248
REMARK   96  A    between atoms: _247  and  _250
REMARK   97  A    between atoms: _250  and  _251
REMARK   98  A    between atoms: _256  and  _258
REMARK   99  A    between atoms: _258  and  _259
REMARK  100  A    between atoms: _258  and  _261
REMARK  101  A    between atoms: _261  and  _262
REMARK  102  A    between atoms: _265  and  _267
REMARK  103  A    between atoms: _267  and  _268
REMARK  104  A    between atoms: _267  and  _270
REMARK  105  A    between atoms: _270  and  _271
REMARK  106  A    between atoms: _274  and  _276
REMARK  107  A    between atoms: _276  and  _277
REMARK  108  A    between atoms: _276  and  _279
REMARK  109  A    between atoms: _279  and  _280
REMARK  110  A    between atoms: _285  and  _287
REMARK  111  A    between atoms: _287  and  _288
REMARK  112  A    between atoms: _287  and  _290
REMARK  113  A    between atoms: _290  and  _291
REMARK  114  A    between atoms: _294  and  _296
REMARK  115  A    between atoms: _296  and  _297
REMARK  116  A    between atoms: _296  and  _299
REMARK  117  A    between atoms: _299  and  _300
REMARK  118  A    between atoms: _305  and  _307
REMARK  119  A    between atoms: _307  and  _308
REMARK  120  A    between atoms: _307  and  _310
REMARK  121  A    between atoms: _310  and  _311
REMARK  122  A    between atoms: _316  and  _318
REMARK  123  A    between atoms: _318  and  _319
REMARK  124  A    between atoms: _318  and  _321
REMARK  125  A    between atoms: _321  and  _322
REMARK  126  A    between atoms: _325  and  _327
REMARK  127  A    between atoms: _327  and  _328
REMARK  128  A    between atoms: _327  and  _330
REMARK  129  A    between atoms: _333  and  _335
REMARK  130  A    between atoms: _335  and  _336
REMARK  131  A    between atoms: _335  and  _338
REMARK  132  A    between atoms: _338  and  _339
REMARK  133  A    between atoms: _342  and  _344
REMARK  134  A    between atoms: _344  and  _345
REMARK  135  A    between atoms: _344  and  _347
REMARK  136  A    between atoms: _347  and  _348
REMARK  137  A    between atoms: _348  and  _349
REMARK  138  A    between atoms: _352  and  _354
REMARK  139  A    between atoms: _354  and  _355
REMARK  140  A    between atoms: _358  and  _360
REMARK  141  A    between atoms: _360  and  _361
REMARK  142  A    between atoms: _360  and  _363
REMARK  143  A    between atoms: _363  and  _364
REMARK  144  A    between atoms: _367  and  _369
REMARK  145  A    between atoms: _369  and  _370
REMARK  146  A    between atoms: _369  and  _372
REMARK  147  A    between atoms: _372  and  _373
REMARK  148  A    between atoms: _373  and  _374
REMARK  149  A    between atoms: _377  and  _379
REMARK  150  A    between atoms: _379  and  _380
REMARK  151  A    between atoms: _379  and  _382
REMARK  152  A    between atoms: _382  and  _383
REMARK  153  A    between atoms: _383  and  _384
REMARK  154  A    between atoms: _384  and  _385
REMARK  155  A    between atoms: _394  and  _396
REMARK  156  A    between atoms: _396  and  _397
REMARK  157  A    between atoms: _396  and  _399
REMARK  158  A    between atoms: _399  and  _400
REMARK  159  A    between atoms: _410  and  _412
REMARK  160  A    between atoms: _412  and  _413
REMARK  161  A    between atoms: _412  and  _415
REMARK  162  A    between atoms: _415  and  _416
REMARK  163  A    between atoms: _421  and  _423
REMARK  164  A    between atoms: _423  and  _424
REMARK  165  A    between atoms: _426  and  _428
REMARK  166  A    between atoms: _428  and  _429
REMARK  167  A    between atoms: _428  and  _431
REMARK  168  A    between atoms: _434  and  _436
REMARK  169  A    between atoms: _436  and  _437
REMARK  170  A    between atoms: _440  and  _442
REMARK  171  A    between atoms: _442  and  _443
REMARK  172  A    between atoms: _442  and  _445
REMARK  173  A    between atoms: _445  and  _446
REMARK  174  A    between atoms: _451  and  _453
REMARK  175  A    between atoms: _453  and  _454
REMARK  176  A    between atoms: _453  and  _456
REMARK  177  A    between atoms: _456  and  _457
REMARK  178  A    between atoms: _457  and  _458
REMARK  179  A    between atoms: _458  and  _459
REMARK  180  A    between atoms: _459  and  _460
REMARK  181  A    between atoms: _464  and  _466
REMARK  182  A    between atoms: _466  and  _467
REMARK  183  A    between atoms: _466  and  _469
REMARK  184  A    between atoms: _469  and  _470
REMARK  185  A    between atoms: _475  and  _477
REMARK  186  A    between atoms: _477  and  _478
REMARK  187  A    between atoms: _480  and  _482
REMARK  188  A    between atoms: _482  and  _483
REMARK  189  A    between atoms: _482  and  _485
REMARK  190  A    between atoms: _485  and  _486
REMARK  191  A    between atoms: _486  and  _487
REMARK  192  A    between atoms: _487  and  _488
REMARK  193  A    between atoms: _488  and  _489
REMARK  194  A    between atoms: _493  and  _495
REMARK  195  A    between atoms: _495  and  _496
REMARK  196  A    between atoms: _495  and  _498
REMARK  197  A    between atoms: _498  and  _499
REMARK  198  A    between atoms: _499  and  _500
REMARK  199  A    between atoms: _500  and  _501
REMARK  200  A    between atoms: _510  and  _512
REMARK  201  A    between atoms: _512  and  _513
REMARK  202  A    between atoms: _512  and  _515
REMARK  203  A    between atoms: _515  and  _516
REMARK  204  A    between atoms: _521  and  _522
REMARK  205  A    between atoms: _524  and  _526
REMARK  206  A    between atoms: _526  and  _527
REMARK  207  A    between atoms: _526  and  _529
REMARK  208  A    between atoms: _529  and  _530
REMARK  209  A    between atoms: _530  and  _531
REMARK  210  A    between atoms: _531  and  _532
REMARK  211  A    between atoms: _532  and  _533
REMARK  212  A    between atoms: _537  and  _539
REMARK  213  A    between atoms: _539  and  _540
REMARK  214  A    between atoms: _539  and  _542
REMARK  215  A    between atoms: _542  and  _543
REMARK  216  A    between atoms: _545  and  _547
REMARK  217  A    between atoms: _547  and  _548
REMARK  218  A    between atoms: _547  and  _550
REMARK  219  A    between atoms: _550  and  _551
REMARK  220  A    between atoms: _554  and  _556
REMARK  221  A    between atoms: _556  and  _557
REMARK  222  A    between atoms: _556  and  _559
REMARK  223  A    between atoms: _559  and  _560
REMARK  224  A    between atoms: _560  and  _561
REMARK  225  A    between atoms: _564  and  _566
REMARK  226  A    between atoms: _566  and  _567
REMARK  227  A    between atoms: _570  and  _572
REMARK  228  A    between atoms: _572  and  _573
REMARK  229  A    between atoms: _572  and  _575
REMARK  230  A    between atoms: _575  and  _576
REMARK  231  A    between atoms: _578  and  _580
REMARK  232  A    between atoms: _580  and  _581
REMARK  233  A    between atoms: _583  and  _585
REMARK  234  A    between atoms: _585  and  _586
REMARK  235  A    between atoms: _585  and  _588
REMARK  236  A    between atoms: _588  and  _589
REMARK  237  A    between atoms: _592  and  _594
REMARK  238  A    between atoms: _594  and  _595
REMARK  239  A    between atoms: _597  and  _599
REMARK  240  A    between atoms: _599  and  _600
REMARK  241  A    between atoms: _599  and  _602
REMARK  242  A    between atoms: _602  and  _603
REMARK  243  A    between atoms: _608  and  _610
REMARK  244  A    between atoms: _610  and  _611
REMARK  245  A    between atoms: _610  and  _613
REMARK  246  A    between atoms: _613  and  _614
REMARK  247  A    between atoms: _614  and  _615
REMARK  248  A    between atoms: _622  and  _623
REMARK  249  A    between atoms: _623  and  _639
REMARK  250  A    between atoms: _624  and  _626
REMARK  251  A    between atoms: _626  and  _627
REMARK  252  A    between atoms: _627  and  _628
REMARK  253  A    between atoms: _632  and  _634
REMARK  254  A    between atoms: _634  and  _635
REMARK  255  A    between atoms: _634  and  _642
REMARK  256  A    between atoms: _635  and  _636
REMARK  257  A    between atoms: _636  and  _637
REMARK  258  A    between atoms: _637  and  _638
REMARK  259  A    between atoms: _638  and  _639
REMARK  260  A    between atoms: _644  and  _646
REMARK  261  A    between atoms: _646  and  _647
REMARK  262  A    between atoms: _646  and  _649
REMARK  263  A    between atoms: _649  and  _650
REMARK  264  A    between atoms: _653  and  _655
REMARK  265  A    between atoms: _655  and  _656
REMARK  266  A    between atoms: _658  and  _660
REMARK  267  A    between atoms: _660  and  _661
REMARK  268  A    between atoms: _664  and  _666
REMARK  269  A    between atoms: _666  and  _667
REMARK  270  A    between atoms: _666  and  _669
REMARK  271  A    between atoms: _669  and  _670
REMARK  272  A    between atoms: _675  and  _676
REMARK                            x       y       z     vdW  Elec       q    Type
REMARK                         _______ _______ _______ _____ _____    ______ ____
ROOT
ATOM      1  C   LEU A   1      33.803  20.834  40.442  0.00  0.00    +0.238 C 
ATOM      2  O   LEU A   1      33.357  21.748  41.148  0.00  0.00    -0.274 OA
ATOM      3  N   GLU A   2      33.110  20.276  39.444  0.00  0.00    -0.298 N 
ATOM      4  H   GLU A   2      33.526  19.469  38.937  0.00  0.00    +0.150 HD
ENDROOT
BRANCH   1   5
ATOM      5  CA  LEU A   1      35.216  20.285  40.681  0.00  0.00    +0.145 C 
BRANCH   5   6
ATOM      6  N   LEU A   1      35.472  19.127  39.819  0.00  0.00    -0.238 NA
ATOM      7  H   LEU A   1      35.981  19.257  38.921  0.00  0.00    +0.142 HD
ENDBRANCH   5   6
BRANCH   5   8
ATOM      8  CB  LEU A   1      36.271  21.377  40.450  0.00  0.00    +0.026 C 
BRANCH   8   9
ATOM      9  CG  LEU A   1      37.572  21.289  41.278  0.00  0.00    +0.002 C 
ATOM     10  CD2 LEU A   1      37.317  21.752  42.684  0.00  0.00    +0.000 C 
ATOM     11  CD1 LEU A   1      38.160  19.867  41.298  0.00  0.00    +0.000 C 
ENDBRANCH   8   9
ENDBRANCH   5   8
ENDBRANCH   1   5
BRANCH   3  12
ATOM     12  CA  GLU A   2      31.786  20.758  39.036  0.00  0.00    +0.137 C 
BRANCH  12  13
ATOM     13  C   GLU A   2      30.831  19.607  38.739  0.00  0.00    +0.227 C 
ATOM     14  O   GLU A   2      31.189  18.669  38.026  0.00  0.00    -0.286 OA
ENDBRANCH  12  13
BRANCH  12  15
ATOM     15  CB  GLU A   2      31.873  21.662  37.796  0.00  0.00    +0.039 C 
BRANCH  15  16
ATOM     16  CG  GLU A   2      32.743  22.895  37.973  0.00  0.00    +0.116 C 
BRANCH  16  17
ATOM     17  CD  GLU A   2      32.666  23.859  36.803  0.00  0.00    +0.365 C 
ATOM     18  OE2 GLU A   2      33.606  24.667  36.666  0.00  0.00    -0.246 OA
ATOM     19  OE1 GLU A   2      31.688  23.815  36.019  0.00  0.00    -0.246 OA
ENDBRANCH  16  17
ENDBRANCH  15  16
ENDBRANCH  12  15
ENDBRANCH   3  12
TORSDOF 9
REMARK  Name = ../refined-set-2016/3l7a/3l7a_pocket.pdb
REMARK  272 active torsions:
REMARK  status: ('A' for Active; 'I' for Inactive)
REMARK    1  A    between atoms: _1  and  _3
REMARK    2  A    between atoms: _3  and  _4
REMARK    3  A    between atoms: _3  and  _6
REMARK    4  A    between atoms: _6  and  _7
REMARK    5  A    between atoms: _12  and  _13
REMARK    6  A    between atoms: _15  and  _17
REMARK    7  A    between atoms: _17  and  _18
REMARK    8  A    between atoms: _17  and  _20
REMARK    9  A    between atoms: _20  and  _21
REMARK   10  A    between atoms: _24  and  _26
REMARK   11  A    between atoms: _26  and  _27
REMARK   12  A    between atoms: _26  and  _29
REMARK   13  A    between atoms: _29  and  _30
REMARK   14  A    between atoms: _30  and  _31
REMARK   15  A    between atoms: _34  and  _36
REMARK   16  A    between atoms: _36  and  _37
REMARK   17  A    between atoms: _36  and  _39
REMARK   18  A    between atoms: _39  and  _40
REMARK   19  A    between atoms: _45  and  _46
REMARK   20  A    between atoms: _48  and  _50
REMARK   21  A    between atoms: _50  and  _51
REMARK   22  A    between atoms: _50  and  _53
REMARK   23  A    between atoms: _53  and  _54
REMARK   24  A    between atoms: _59  and  _61
REMARK   25  A    between atoms: _61  and  _62
REMARK   26  A    between atoms: _64  and  _66
REMARK   27  A    between atoms: _66  and  _67
REMARK   28  A    between atoms: _69  and  _71
REMARK   29  A    between atoms: _71  and  _72
REMARK   30  A    between atoms: _71  and  _74
REMARK   31  A    between atoms: _74  and  _75
REMARK   32  A    between atoms: _78  and  _80
REMARK   33  A    between atoms: _80  and  _81
REMARK   34  A    between atoms: _83  and  _85
REMARK   35  A    between atoms: _85  and  _86
REMARK   36  A    between atoms: _85  and  _88
REMARK   37  A    between atoms: _88  and  _89
REMARK   38  A    between atoms: _89  and  _90
REMARK   39  A    between atoms: _90  and  _91
REMARK   40  A    between atoms: _100  and  _102
REMARK   41  A    between atoms: _102  and  _103
REMARK   42  A    between atoms: _102  and  _105
REMARK   43  A    between atoms: _105  and  _106
REMARK   44  A    between atoms: _109  and  _111
REMARK   45  A    between atoms: _111  and  _112
REMARK   46  A    between atoms: _115  and  _117
REMARK   47  A    between atoms: _117  and  _118
REMARK   48  A    between atoms: _117  and  _120
REMARK   49  A    between atoms: _120  and  _121
REMARK   50  A    between atoms: _127  and  _129
REMARK   51  A    between atoms: _129  and  _130
REMARK   52  A    between atoms: _129  and  _132
REMARK   53  A    between atoms: _132  and  _133
REMARK   54  A    between atoms: _138  and  _139
REMARK   55  A    between atoms: _142  and  _143
REMARK   56  A    between atoms: _148  and  _150
REMARK   57  A    between atoms: _150  and  _151
REMARK   58  A    between atoms: _150  and  _153
REMARK   59  A    between atoms: _153  and  _154
REMARK   60  A    between atoms: _159  and  _161
REMARK   61  A    between atoms: _161  and  _162
REMARK   62  A    between atoms: _161  and  _164
REMARK   63  A    between atoms: _164  and  _165
REMARK   64  A    between atoms: _168  and  _170
REMARK   65  A    between atoms: _170  and  _171
REMARK   66  A    between atoms: _170  and  _173
REMARK   67  A    between atoms: _173  and  _174
REMARK   68  A    between atoms: _179  and  _181
REMARK   69  A    between atoms: _181  and  _182
REMARK   70  A    between atoms: _181  and  _184
REMARK   71  A    between atoms: _184  and  _185
REMARK   72  A    between atoms: _191  and  _193
REMARK   73  A    between atoms: _193  and  _194
REMARK   74  A    between atoms: _193  and  _196
REMARK   75  A    between atoms: _196  and  _197
REMARK   76  A    between atoms: _203  and  _205
REMARK   77  A    between atoms: _205  and  _206
REMARK   78  A    between atoms: _205  and  _208
REMARK   79  A    between atoms: _208  and  _209
REMARK   80  A    between atoms: _209  and  _210
REMARK   81  A    between atoms: _213  and  _215
REMARK   82  A    between atoms: _215  and  _216
REMARK   83  A    between atoms: _218  and  _220
REMARK   84  A    between atoms: _220  and  _221
REMARK   85  A    between atoms: _220  and  _223
REMARK   86  A    between atoms: _223  and  _224
REMARK   87  A    between atoms: _224  and  _225
REMARK   88  A    between atoms: _225  and  _226
REMARK   89  A    between atoms: _235  and  _237
REMARK   90  A    between atoms: _237  and  _238
REMARK   91  A    between atoms: _237  and  _240
REMARK   92  A    between atoms: _240  and  _241
REMARK   93  A    between atoms: _241  and  _242
REMARK   94  A    between atoms: _245  and  _247
REMARK   95  A    between atoms: _247  and  _248
REMARK   96  A    between atoms: _247  and  _250
REMARK   97  A    between atoms: _250  and  _251
REMARK   98  A    between atoms: _256  and  _258
REMARK   99  A    between atoms: _258  and  _259
REMARK  100  A    between atoms: _258  and  _261
REMARK  101  A    between atoms: _261  and  _262
REMARK  102  A    between atoms: _265  and  _267
REMARK  103  A    between atoms: _267  and  _268
REMARK  104  A    between atoms: _267  and  _270
REMARK  105  A    between atoms: _270  and  _271
REMARK  106  A    between atoms: _274  and  _276
REMARK  107  A    between atoms: _276  and  _277
REMARK  108  A    between atoms: _276  and  _279
REMARK  109  A    between atoms: _279  and  _280
REMARK  110  A    between atoms: _285  and  _287
REMARK  111  A    between atoms: _287  and  _288
REMARK  112  A    between atoms: _287  and  _290
REMARK  113  A    between atoms: _290  and  _291
REMARK  114  A    between atoms: _294  and  _296
REMARK  115  A    between atoms: _296  and  _297
REMARK  116  A    between atoms: _296  and  _299
REMARK  117  A    between atoms: _299  and  _300
REMARK  118  A    between atoms: _305  and  _307
REMARK  119  A    between atoms: _307  and  _308
REMARK  120  A    between atoms: _307  and  _310
REMARK  121  A    between atoms: _310  and  _311
REMARK  122  A    between atoms: _316  and  _318
REMARK  123  A    between atoms: _318  and  _319
REMARK  124  A    between atoms: _318  and  _321
REMARK  125  A    between atoms: _321  and  _322
REMARK  126  A    between atoms: _325  and  _327
REMARK  127  A    between atoms: _327  and  _328
REMARK  128  A    between atoms: _327  and  _330
REMARK  129  A    between atoms: _333  and  _335
REMARK  130  A    between atoms: _335  and  _336
REMARK  131  A    between atoms: _335  and  _338
REMARK  132  A    between atoms: _338  and  _339
REMARK  133  A    between atoms: _342  and  _344
REMARK  134  A    between atoms: _344  and  _345
REMARK  135  A    between atoms: _344  and  _347
REMARK  136  A    between atoms: _347  and  _348
REMARK  137  A    between atoms: _348  and  _349
REMARK  138  A    between atoms: _352  and  _354
REMARK  139  A    between atoms: _354  and  _355
REMARK  140  A    between atoms: _358  and  _360
REMARK  141  A    between atoms: _360  and  _361
REMARK  142  A    between atoms: _360  and  _363
REMARK  143  A    between atoms: _363  and  _364
REMARK  144  A    between atoms: _367  and  _369
REMARK  145  A    between atoms: _369  and  _370
REMARK  146  A    between atoms: _369  and  _372
REMARK  147  A    between atoms: _372  and  _373
REMARK  148  A    between atoms: _373  and  _374
REMARK  149  A    between atoms: _377  and  _379
REMARK  150  A    between atoms: _379  and  _380
REMARK  151  A    between atoms: _379  and  _382
REMARK  152  A    between atoms: _382  and  _383
REMARK  153  A    between atoms: _383  and  _384
REMARK  154  A    between atoms: _384  and  _385
REMARK  155  A    between atoms: _394  and  _396
REMARK  156  A    between atoms: _396  and  _397
REMARK  157  A    between atoms: _396  and  _399
REMARK  158  A    between atoms: _399  and  _400
REMARK  159  A    between atoms: _410  and  _412
REMARK  160  A    between atoms: _412  and  _413
REMARK  161  A    between atoms: _412  and  _415
REMARK  162  A    between atoms: _415  and  _416
REMARK  163  A    between atoms: _421  and  _423
REMARK  164  A    between atoms: _423  and  _424
REMARK  165  A    between atoms: _426  and  _428
REMARK  166  A    between atoms: _428  and  _429
REMARK  167  A    between atoms: _428  and  _431
REMARK  168  A    between atoms: _434  and  _436
REMARK  169  A    between atoms: _436  and  _437
REMARK  170  A    between atoms: _440  and  _442
REMARK  171  A    between atoms: _442  and  _443
REMARK  172  A    between atoms: _442  and  _445
REMARK  173  A    between atoms: _445  and  _446
REMARK  174  A    between atoms: _451  and  _453
REMARK  175  A    between atoms: _453  and  _454
REMARK  176  A    between atoms: _453  and  _456
REMARK  177  A    between atoms: _456  and  _457
REMARK  178  A    between atoms: _457  and  _458
REMARK  179  A    between atoms: _458  and  _459
REMARK  180  A    between atoms: _459  and  _460
REMARK  181  A    between atoms: _464  and  _466
REMARK  182  A    between atoms: _466  and  _467
REMARK  183  A    between atoms: _466  and  _469
REMARK  184  A    between atoms: _469  and  _470
REMARK  185  A    between atoms: _475  and  _477
REMARK  186  A    between atoms: _477  and  _478
REMARK  187  A    between atoms: _480  and  _482
REMARK  188  A    between atoms: _482  and  _483
REMARK  189  A    between atoms: _482  and  _485
REMARK  190  A    between atoms: _485  and  _486
REMARK  191  A    between atoms: _486  and  _487
REMARK  192  A    between atoms: _487  and  _488
REMARK  193  A    between atoms: _488  and  _489
REMARK  194  A    between atoms: _493  and  _495
REMARK  195  A    between atoms: _495  and  _496
REMARK  196  A    between atoms: _495  and  _498
REMARK  197  A    between atoms: _498  and  _499
REMARK  198  A    between atoms: _499  and  _500
REMARK  199  A    between atoms: _500  and  _501
REMARK  200  A    between atoms: _510  and  _512
REMARK  201  A    between atoms: _512  and  _513
REMARK  202  A    between atoms: _512  and  _515
REMARK  203  A    between atoms: _515  and  _516
REMARK  204  A    between atoms: _521  and  _522
REMARK  205  A    between atoms: _524  and  _526
REMARK  206  A    between atoms: _526  and  _527
REMARK  207  A    between atoms: _526  and  _529
REMARK  208  A    between atoms: _529  and  _530
REMARK  209  A    between atoms: _530  and  _531
REMARK  210  A    between atoms: _531  and  _532
REMARK  211  A    between atoms: _532  and  _533
REMARK  212  A    between atoms: _537  and  _539
REMARK  213  A    between atoms: _539  and  _540
REMARK  214  A    between atoms: _539  and  _542
REMARK  215  A    between atoms: _542  and  _543
REMARK  216  A    between atoms: _545  and  _547
REMARK  217  A    between atoms: _547  and  _548
REMARK  218  A    between atoms: _547  and  _550
REMARK  219  A    between atoms: _550  and  _551
REMARK  220  A    between atoms: _554  and  _556
REMARK  221  A    between atoms: _556  and  _557
REMARK  222  A    between atoms: _556  and  _559
REMARK  223  A    between atoms: _559  and  _560
REMARK  224  A    between atoms: _560  and  _561
REMARK  225  A    between atoms: _564  and  _566
REMARK  226  A    between atoms: _566  and  _567
REMARK  227  A    between atoms: _570  and  _572
REMARK  228  A    between atoms: _572  and  _573
REMARK  229  A    between atoms: _572  and  _575
REMARK  230  A    between atoms: _575  and  _576
REMARK  231  A    between atoms: _578  and  _580
REMARK  232  A    between atoms: _580  and  _581
REMARK  233  A    between atoms: _583  and  _585
REMARK  234  A    between atoms: _585  and  _586
REMARK  235  A    between atoms: _585  and  _588
REMARK  236  A    between atoms: _588  and  _589
REMARK  237  A    between atoms: _592  and  _594
REMARK  238  A    between atoms: _594  and  _595
REMARK  239  A    between atoms: _597  and  _599
REMARK  240  A    between atoms: _599  and  _600
REMARK  241  A    between atoms: _599  and  _602
REMARK  242  A    between atoms: _602  and  _603
REMARK  243  A    between atoms: _608  and  _610
REMARK  244  A    between atoms: _610  and  _611
REMARK  245  A    between atoms: _610  and  _613
REMARK  246  A    between atoms: _613  and  _614
REMARK  247  A    between atoms: _614  and  _615
REMARK  248  A    between atoms: _622  and  _623
REMARK  249  A    between atoms: _623  and  _639
REMARK  250  A    between atoms: _624  and  _626
REMARK  251  A    between atoms: _626  and  _627
REMARK  252  A    between atoms: _627  and  _628
REMARK  253  A    between atoms: _632  and  _634
REMARK  254  A    between atoms: _634  and  _635
REMARK  255  A    between atoms: _634  and  _642
REMARK  256  A    between atoms: _635  and  _636
REMARK  257  A    between atoms: _636  and  _637
REMARK  258  A    between atoms: _637  and  _638
REMARK  259  A    between atoms: _638  and  _639
REMARK  260  A    between atoms: _644  and  _646
REMARK  261  A    between atoms: _646  and  _647
REMARK  262  A    between atoms: _646  and  _649
REMARK  263  A    between atoms: _649  and  _650
REMARK  264  A    between atoms: _653  and  _655
REMARK  265  A    between atoms: _655  and  _656
REMARK  266  A    between atoms: _658  and  _660
REMARK  267  A    between atoms: _660  and  _661
REMARK  268  A    between atoms: _664  and  _666
REMARK  269  A    between atoms: _666  and  _667
REMARK  270  A    between atoms: _666  and  _669
REMARK  271  A    between atoms: _669  and  _670
REMARK  272  A    between atoms: _675  and  _676
REMARK                            x       y       z     vdW  Elec       q    Type
REMARK                         _______ _______ _______ _____ _____    ______ ____
ROOT
ATOM      1  CG  TYR A   1      25.600  22.931  35.677  0.00  0.00    -0.020 A 
ATOM      2  CD2 TYR A   1      24.730  23.595  36.530  0.00  0.00    -0.001 A 
ATOM      3  CE2 TYR A   1      24.300  24.920  36.229  0.00  0.00    +0.036 A 
ATOM      4  CZ  TYR A   1      24.737  25.521  35.063  0.00  0.00    +0.134 A 
ATOM      5  CE1 TYR A   1      25.583  24.858  34.205  0.00  0.00    +0.036 A 
ATOM      6  CD1 TYR A   1      26.006  23.582  34.508  0.00  0.00    -0.001 A 
ENDROOT
BRANCH   4   7
ATOM      7  OH  TYR A   1      24.358  26.796  34.705  0.00  0.00    -0.506 OA
ATOM      8  HH  TYR A   1      23.754  27.166  35.397  0.00  0.00    +0.292 HD
ENDBRANCH   4   7
BRANCH   1   9
ATOM      9  CB  TYR A   1      26.087  21.529  35.939  0.00  0.00    +0.051 C 
BRANCH   9  10
ATOM     10  CA  TYR A   1      25.778  20.873  37.276  0.00  0.00    +0.137 C 
BRANCH  10  11
ATOM     11  N   TYR A   1      26.851  19.931  37.575  0.00  0.00    -0.239 NA
ATOM     12  H   TYR A   1      27.310  19.432  36.786  0.00  0.00    +0.142 HD
ENDBRANCH  10  11
BRANCH  10  13
ATOM     13  C   TYR A   1      24.473  20.077  37.183  0.00  0.00    +0.224 C 
ATOM     14  O   TYR A   1      24.030  19.741  36.084  0.00  0.00    -0.287 OA
ENDBRANCH  10  13
ENDBRANCH   9  10
ENDBRANCH   1   9
TORSDOF 5
REMARK  Name = ../refined-set-2016/3l7a/3l7a_pocket.pdb
REMARK  272 active torsions:
REMARK  status: ('A' for Active; 'I' for Inactive)
REMARK    1  A    between atoms: _1  and  _3
REMARK    2  A    between atoms: _3  and  _4
REMARK    3  A    between atoms: _3  and  _6
REMARK    4  A    between atoms: _6  and  _7
REMARK    5  A    between atoms: _12  and  _13
REMARK    6  A    between atoms: _15  and  _17
REMARK    7  A    between atoms: _17  and  _18
REMARK    8  A    between atoms: _17  and  _20
REMARK    9  A    between atoms: _20  and  _21
REMARK   10  A    between atoms: _24  and  _26
REMARK   11  A    between atoms: _26  and  _27
REMARK   12  A    between atoms: _26  and  _29
REMARK   13  A    between atoms: _29  and  _30
REMARK   14  A    between atoms: _30  and  _31
REMARK   15  A    between atoms: _34  and  _36
REMARK   16  A    between atoms: _36  and  _37
REMARK   17  A    between atoms: _36  and  _39
REMARK   18  A    between atoms: _39  and  _40
REMARK   19  A    between atoms: _45  and  _46
REMARK   20  A    between atoms: _48  and  _50
REMARK   21  A    between atoms: _50  and  _51
REMARK   22  A    between atoms: _50  and  _53
REMARK   23  A    between atoms: _53  and  _54
REMARK   24  A    between atoms: _59  and  _61
REMARK   25  A    between atoms: _61  and  _62
REMARK   26  A    between atoms: _64  and  _66
REMARK   27  A    between atoms: _66  and  _67
REMARK   28  A    between atoms: _69  and  _71
REMARK   29  A    between atoms: _71  and  _72
REMARK   30  A    between atoms: _71  and  _74
REMARK   31  A    between atoms: _74  and  _75
REMARK   32  A    between atoms: _78  and  _80
REMARK   33  A    between atoms: _80  and  _81
REMARK   34  A    between atoms: _83  and  _85
REMARK   35  A    between atoms: _85  and  _86
REMARK   36  A    between atoms: _85  and  _88
REMARK   37  A    between atoms: _88  and  _89
REMARK   38  A    between atoms: _89  and  _90
REMARK   39  A    between atoms: _90  and  _91
REMARK   40  A    between atoms: _100  and  _102
REMARK   41  A    between atoms: _102  and  _103
REMARK   42  A    between atoms: _102  and  _105
REMARK   43  A    between atoms: _105  and  _106
REMARK   44  A    between atoms: _109  and  _111
REMARK   45  A    between atoms: _111  and  _112
REMARK   46  A    between atoms: _115  and  _117
REMARK   47  A    between atoms: _117  and  _118
REMARK   48  A    between atoms: _117  and  _120
REMARK   49  A    between atoms: _120  and  _121
REMARK   50  A    between atoms: _127  and  _129
REMARK   51  A    between atoms: _129  and  _130
REMARK   52  A    between atoms: _129  and  _132
REMARK   53  A    between atoms: _132  and  _133
REMARK   54  A    between atoms: _138  and  _139
REMARK   55  A    between atoms: _142  and  _143
REMARK   56  A    between atoms: _148  and  _150
REMARK   57  A    between atoms: _150  and  _151
REMARK   58  A    between atoms: _150  and  _153
REMARK   59  A    between atoms: _153  and  _154
REMARK   60  A    between atoms: _159  and  _161
REMARK   61  A    between atoms: _161  and  _162
REMARK   62  A    between atoms: _161  and  _164
REMARK   63  A    between atoms: _164  and  _165
REMARK   64  A    between atoms: _168  and  _170
REMARK   65  A    between atoms: _170  and  _171
REMARK   66  A    between atoms: _170  and  _173
REMARK   67  A    between atoms: _173  and  _174
REMARK   68  A    between atoms: _179  and  _181
REMARK   69  A    between atoms: _181  and  _182
REMARK   70  A    between atoms: _181  and  _184
REMARK   71  A    between atoms: _184  and  _185
REMARK   72  A    between atoms: _191  and  _193
REMARK   73  A    between atoms: _193  and  _194
REMARK   74  A    between atoms: _193  and  _196
REMARK   75  A    between atoms: _196  and  _197
REMARK   76  A    between atoms: _203  and  _205
REMARK   77  A    between atoms: _205  and  _206
REMARK   78  A    between atoms: _205  and  _208
REMARK   79  A    between atoms: _208  and  _209
REMARK   80  A    between atoms: _209  and  _210
REMARK   81  A    between atoms: _213  and  _215
REMARK   82  A    between atoms: _215  and  _216
REMARK   83  A    between atoms: _218  and  _220
REMARK   84  A    between atoms: _220  and  _221
REMARK   85  A    between atoms: _220  and  _223
REMARK   86  A    between atoms: _223  and  _224
REMARK   87  A    between atoms: _224  and  _225
REMARK   88  A    between atoms: _225  and  _226
REMARK   89  A    between atoms: _235  and  _237
REMARK   90  A    between atoms: _237  and  _238
REMARK   91  A    between atoms: _237  and  _240
REMARK   92  A    between atoms: _240  and  _241
REMARK   93  A    between atoms: _241  and  _242
REMARK   94  A    between atoms: _245  and  _247
REMARK   95  A    between atoms: _247  and  _248
REMARK   96  A    between atoms: _247  and  _250
REMARK   97  A    between atoms: _250  and  _251
REMARK   98  A    between atoms: _256  and  _258
REMARK   99  A    between atoms: _258  and  _259
REMARK  100  A    between atoms: _258  and  _261
REMARK  101  A    between atoms: _261  and  _262
REMARK  102  A    between atoms: _265  and  _267
REMARK  103  A    between atoms: _267  and  _268
REMARK  104  A    between atoms: _267  and  _270
REMARK  105  A    between atoms: _270  and  _271
REMARK  106  A    between atoms: _274  and  _276
REMARK  107  A    between atoms: _276  and  _277
REMARK  108  A    between atoms: _276  and  _279
REMARK  109  A    between atoms: _279  and  _280
REMARK  110  A    between atoms: _285  and  _287
REMARK  111  A    between atoms: _287  and  _288
REMARK  112  A    between atoms: _287  and  _290
REMARK  113  A    between atoms: _290  and  _291
REMARK  114  A    between atoms: _294  and  _296
REMARK  115  A    between atoms: _296  and  _297
REMARK  116  A    between atoms: _296  and  _299
REMARK  117  A    between atoms: _299  and  _300
REMARK  118  A    between atoms: _305  and  _307
REMARK  119  A    between atoms: _307  and  _308
REMARK  120  A    between atoms: _307  and  _310
REMARK  121  A    between atoms: _310  and  _311
REMARK  122  A    between atoms: _316  and  _318
REMARK  123  A    between atoms: _318  and  _319
REMARK  124  A    between atoms: _318  and  _321
REMARK  125  A    between atoms: _321  and  _322
REMARK  126  A    between atoms: _325  and  _327
REMARK  127  A    between atoms: _327  and  _328
REMARK  128  A    between atoms: _327  and  _330
REMARK  129  A    between atoms: _333  and  _335
REMARK  130  A    between atoms: _335  and  _336
REMARK  131  A    between atoms: _335  and  _338
REMARK  132  A    between atoms: _338  and  _339
REMARK  133  A    between atoms: _342  and  _344
REMARK  134  A    between atoms: _344  and  _345
REMARK  135  A    between atoms: _344  and  _347
REMARK  136  A    between atoms: _347  and  _348
REMARK  137  A    between atoms: _348  and  _349
REMARK  138  A    between atoms: _352  and  _354
REMARK  139  A    between atoms: _354  and  _355
REMARK  140  A    between atoms: _358  and  _360
REMARK  141  A    between atoms: _360  and  _361
REMARK  142  A    between atoms: _360  and  _363
REMARK  143  A    between atoms: _363  and  _364
REMARK  144  A    between atoms: _367  and  _369
REMARK  145  A    between atoms: _369  and  _370
REMARK  146  A    between atoms: _369  and  _372
REMARK  147  A    between atoms: _372  and  _373
REMARK  148  A    between atoms: _373  and  _374
REMARK  149  A    between atoms: _377  and  _379
REMARK  150  A    between atoms: _379  and  _380
REMARK  151  A    between atoms: _379  and  _382
REMARK  152  A    between atoms: _382  and  _383
REMARK  153  A    between atoms: _383  and  _384
REMARK  154  A    between atoms: _384  and  _385
REMARK  155  A    between atoms: _394  and  _396
REMARK  156  A    between atoms: _396  and  _397
REMARK  157  A    between atoms: _396  and  _399
REMARK  158  A    between atoms: _399  and  _400
REMARK  159  A    between atoms: _410  and  _412
REMARK  160  A    between atoms: _412  and  _413
REMARK  161  A    between atoms: _412  and  _415
REMARK  162  A    between atoms: _415  and  _416
REMARK  163  A    between atoms: _421  and  _423
REMARK  164  A    between atoms: _423  and  _424
REMARK  165  A    between atoms: _426  and  _428
REMARK  166  A    between atoms: _428  and  _429
REMARK  167  A    between atoms: _428  and  _431
REMARK  168  A    between atoms: _434  and  _436
REMARK  169  A    between atoms: _436  and  _437
REMARK  170  A    between atoms: _440  and  _442
REMARK  171  A    between atoms: _442  and  _443
REMARK  172  A    between atoms: _442  and  _445
REMARK  173  A    between atoms: _445  and  _446
REMARK  174  A    between atoms: _451  and  _453
REMARK  175  A    between atoms: _453  and  _454
REMARK  176  A    between atoms: _453  and  _456
REMARK  177  A    between atoms: _456  and  _457
REMARK  178  A    between atoms: _457  and  _458
REMARK  179  A    between atoms: _458  and  _459
REMARK  180  A    between atoms: _459  and  _460
REMARK  181  A    between atoms: _464  and  _466
REMARK  182  A    between atoms: _466  and  _467
REMARK  183  A    between atoms: _466  and  _469
REMARK  184  A    between atoms: _469  and  _470
REMARK  185  A    between atoms: _475  and  _477
REMARK  186  A    between atoms: _477  and  _478
REMARK  187  A    between atoms: _480  and  _482
REMARK  188  A    between atoms: _482  and  _483
REMARK  189  A    between atoms: _482  and  _485
REMARK  190  A    between atoms: _485  and  _486
REMARK  191  A    between atoms: _486  and  _487
REMARK  192  A    between atoms: _487  and  _488
REMARK  193  A    between atoms: _488  and  _489
REMARK  194  A    between atoms: _493  and  _495
REMARK  195  A    between atoms: _495  and  _496
REMARK  196  A    between atoms: _495  and  _498
REMARK  197  A    between atoms: _498  and  _499
REMARK  198  A    between atoms: _499  and  _500
REMARK  199  A    between atoms: _500  and  _501
REMARK  200  A    between atoms: _510  and  _512
REMARK  201  A    between atoms: _512  and  _513
REMARK  202  A    between atoms: _512  and  _515
REMARK  203  A    between atoms: _515  and  _516
REMARK  204  A    between atoms: _521  and  _522
REMARK  205  A    between atoms: _524  and  _526
REMARK  206  A    between atoms: _526  and  _527
REMARK  207  A    between atoms: _526  and  _529
REMARK  208  A    between atoms: _529  and  _530
REMARK  209  A    between atoms: _530  and  _531
REMARK  210  A    between atoms: _531  and  _532
REMARK  211  A    between atoms: _532  and  _533
REMARK  212  A    between atoms: _537  and  _539
REMARK  213  A    between atoms: _539  and  _540
REMARK  214  A    between atoms: _539  and  _542
REMARK  215  A    between atoms: _542  and  _543
REMARK  216  A    between atoms: _545  and  _547
REMARK  217  A    between atoms: _547  and  _548
REMARK  218  A    between atoms: _547  and  _550
REMARK  219  A    between atoms: _550  and  _551
REMARK  220  A    between atoms: _554  and  _556
REMARK  221  A    between atoms: _556  and  _557
REMARK  222  A    between atoms: _556  and  _559
REMARK  223  A    between atoms: _559  and  _560
REMARK  224  A    between atoms: _560  and  _561
REMARK  225  A    between atoms: _564  and  _566
REMARK  226  A    between atoms: _566  and  _567
REMARK  227  A    between atoms: _570  and  _572
REMARK  228  A    between atoms: _572  and  _573
REMARK  229  A    between atoms: _572  and  _575
REMARK  230  A    between atoms: _575  and  _576
REMARK  231  A    between atoms: _578  and  _580
REMARK  232  A    between atoms: _580  and  _581
REMARK  233  A    between atoms: _583  and  _585
REMARK  234  A    between atoms: _585  and  _586
REMARK  235  A    between atoms: _585  and  _588
REMARK  236  A    between atoms: _588  and  _589
REMARK  237  A    between atoms: _592  and  _594
REMARK  238  A    between atoms: _594  and  _595
REMARK  239  A    between atoms: _597  and  _599
REMARK  240  A    between atoms: _599  and  _600
REMARK  241  A    between atoms: _599  and  _602
REMARK  242  A    between atoms: _602  and  _603
REMARK  243  A    between atoms: _608  and  _610
REMARK  244  A    between atoms: _610  and  _611
REMARK  245  A    between atoms: _610  and  _613
REMARK  246  A    between atoms: _613  and  _614
REMARK  247  A    between atoms: _614  and  _615
REMARK  248  A    between atoms: _622  and  _623
REMARK  249  A    between atoms: _623  and  _639
REMARK  250  A    between atoms: _624  and  _626
REMARK  251  A    between atoms: _626  and  _627
REMARK  252  A    between atoms: _627  and  _628
REMARK  253  A    between atoms: _632  and  _634
REMARK  254  A    between atoms: _634  and  _635
REMARK  255  A    between atoms: _634  and  _642
REMARK  256  A    between atoms: _635  and  _636
REMARK  257  A    between atoms: _636  and  _637
REMARK  258  A    between atoms: _637  and  _638
REMARK  259  A    between atoms: _638  and  _639
REMARK  260  A    between atoms: _644  and  _646
REMARK  261  A    between atoms: _646  and  _647
REMARK  262  A    between atoms: _646  and  _649
REMARK  263  A    between atoms: _649  and  _650
REMARK  264  A    between atoms: _653  and  _655
REMARK  265  A    between atoms: _655  and  _656
REMARK  266  A    between atoms: _658  and  _660
REMARK  267  A    between atoms: _660  and  _661
REMARK  268  A    between atoms: _664  and  _666
REMARK  269  A    between atoms: _666  and  _667
REMARK  270  A    between atoms: _666  and  _669
REMARK  271  A    between atoms: _669  and  _670
REMARK  272  A    between atoms: _675  and  _676
REMARK                            x       y       z     vdW  Elec       q    Type
REMARK                         _______ _______ _______ _____ _____    ______ ____
ROOT
ATOM      1  C   GLY A   5      28.631  19.769  34.456  0.00  0.00    +0.243 C 
ATOM      2  O   GLY A   5      28.260  18.820  35.158  0.00  0.00    -0.273 OA
ATOM      3  N   ARG A   6      27.967  20.165  33.377  0.00  0.00    -0.297 N 
ATOM      4  H   ARG A   6      28.303  20.990  32.840  0.00  0.00    +0.150 HD
ENDROOT
BRANCH   3   5
ATOM      5  CA  ARG A   6      26.752  19.445  32.929  0.00  0.00    +0.149 C 
BRANCH   5   6
ATOM      6  C   ARG A   6      27.116  18.073  32.358  0.00  0.00    +0.241 C 
ATOM      7  O   ARG A   6      26.372  17.103  32.538  0.00  0.00    -0.273 OA
ATOM      8  N   LEU A   7      28.264  17.989  31.683  0.00  0.00    -0.297 N 
ATOM      9  H   LEU A   7      28.794  18.860  31.478  0.00  0.00    +0.150 HD
BRANCH   8  10
ATOM     10  CA  LEU A   7      28.799  16.703  31.222  0.00  0.00    +0.149 C 
BRANCH  10  11
ATOM     11  C   LEU A   7      28.952  15.701  32.371  0.00  0.00    +0.241 C 
ATOM     12  N   ALA A   8      29.571  16.126  33.478  0.00  0.00    -0.298 N 
ATOM     13  H   ALA A   8      29.984  17.080  33.493  0.00  0.00    +0.150 HD
ATOM     14  O   LEU A   7      28.525  14.566  32.248  0.00  0.00    -0.273 OA
BRANCH  12  15
ATOM     15  CA  ALA A   8      29.682  15.283  34.667  0.00  0.00    +0.137 C 
ATOM     16  CB  ALA A   8      30.369  16.040  35.802  0.00  0.00    +0.030 C 
BRANCH  15  17
ATOM     17  C   ALA A   8      28.308  14.759  35.117  0.00  0.00    +0.227 C 
ATOM     18  O   ALA A   8      28.175  13.585  35.465  0.00  0.00    -0.286 OA
ENDBRANCH  15  17
ENDBRANCH  12  15
ENDBRANCH  10  11
BRANCH  10  19
ATOM     19  CB  LEU A   7      30.136  16.863  30.483  0.00  0.00    +0.029 C 
BRANCH  19  20
ATOM     20  CG  LEU A   7      30.559  15.589  29.719  0.00  0.00    +0.002 C 
ATOM     21  CD2 LEU A   7      32.064  15.559  29.450  0.00  0.00    +0.000 C 
ATOM     22  CD1 LEU A   7      29.759  15.436  28.418  0.00  0.00    +0.000 C 
ENDBRANCH  19  20
ENDBRANCH  10  19
ENDBRANCH   8  10
ENDBRANCH   5   6
BRANCH   5  23
ATOM     23  CB  ARG A   6      25.937  20.289  31.936  0.00  0.00    +0.033 C 
BRANCH  23  24
ATOM     24  CG  ARG A   6      24.627  19.641  31.443  0.00  0.00    +0.045 C 
BRANCH  24  25
ATOM     25  CD  ARG A   6      23.701  19.241  32.616  0.00  0.00    +0.174 C 
BRANCH  25  26
ATOM     26  NE  ARG A   6      23.272  17.842  32.494  0.00  0.00    -0.265 N 
ATOM     27  CZ  ARG A   6      22.455  17.222  33.342  0.00  0.00    +0.342 C 
ATOM     28  NH2 ARG A   6      21.983  17.863  34.406  0.00  0.00    -0.292 N 
ATOM     29 HH21 ARG A   6      21.345  17.375  35.066  0.00  0.00    +0.255 HD
ATOM     30 HH22 ARG A   6      22.252  18.853  34.578  0.00  0.00    +0.255 HD
ATOM     31  NH1 ARG A   6      22.133  15.945  33.144  0.00  0.00    -0.292 N 
ATOM     32 HH11 ARG A   6      21.494  15.461  33.807  0.00  0.00    +0.255 HD
ATOM     33 HH12 ARG A   6      22.520  15.432  32.326  0.00  0.00    +0.255 HD
ATOM     34  HE  ARG A   6      23.633  17.296  31.686  0.00  0.00    +0.259 HD
ENDBRANCH  25  26
ENDBRANCH  24  25
ENDBRANCH  23  24
ENDBRANCH   5  23
ENDBRANCH   3   5
BRANCH   1  35
ATOM     35  CA  GLY A   5      29.883  20.565  34.815  0.00  0.00    +0.176 C 
BRANCH  35  37
ATOM     36  C   LEU A   4      31.317  20.114  32.890  0.00  0.00    +0.241 C 
ATOM     37  N   GLY A   5      30.641  20.984  33.633  0.00  0.00    -0.295 N 
ATOM     38  H   GLY A   5      30.650  21.990  33.368  0.00  0.00    +0.150 HD
ATOM     39  O   LEU A   4      31.361  18.902  33.147  0.00  0.00    -0.273 OA
BRANCH  36  40
ATOM     40  CA  LEU A   4      32.071  20.683  31.678  0.00  0.00    +0.149 C 
BRANCH  40  42
ATOM     41  C   GLY A   3      30.102  21.292  30.362  0.00  0.00    +0.243 C 
ATOM     42  N   LEU A   4      31.255  21.627  30.931  0.00  0.00    -0.297 N 
ATOM     43  H   LEU A   4      31.589  22.608  30.838  0.00  0.00    +0.150 HD
ATOM     44  O   GLY A   3      29.628  20.150  30.419  0.00  0.00    -0.273 OA
BRANCH  41  45
ATOM     45  CA  GLY A   3      29.397  22.414  29.614  0.00  0.00    +0.176 C 
BRANCH  45  48
ATOM     46  C   GLY A   2      28.623  23.839  31.475  0.00  0.00    +0.243 C 
ATOM     47  O   GLY A   2      28.258  22.892  32.176  0.00  0.00    -0.273 OA
ATOM     48  N   GLY A   3      29.280  23.705  30.318  0.00  0.00    -0.295 N 
ATOM     49  H   GLY A   3      29.727  24.545  29.898  0.00  0.00    +0.150 HD
BRANCH  46  50
ATOM     50  CA  GLY A   2      28.355  25.248  31.934  0.00  0.00    +0.176 C 
BRANCH  50  53
ATOM     51  C   ASN A   1      28.751  26.622  33.904  0.00  0.00    +0.239 C 
ATOM     52  O   ASN A   1      28.086  27.560  33.460  0.00  0.00    -0.274 OA
ATOM     53  N   GLY A   2      28.869  25.451  33.286  0.00  0.00    -0.296 N 
ATOM     54  H   GLY A   2      29.338  24.662  33.776  0.00  0.00    +0.150 HD
BRANCH  51  55
ATOM     55  CA  ASN A   1      29.503  26.762  35.223  0.00  0.00    +0.154 C 
BRANCH  55  56
ATOM     56  N   ASN A   1      29.535  25.544  36.028  0.00  0.00    -0.238 NA
ATOM     57  H   ASN A   1      30.252  24.821  35.817  0.00  0.00    +0.142 HD
ENDBRANCH  55  56
BRANCH  55  58
ATOM     58  CB  ASN A   1      30.929  27.224  34.939  0.00  0.00    +0.111 C 
BRANCH  58  59
ATOM     59  CG  ASN A   1      31.505  28.009  36.087  0.00  0.00    +0.221 C 
ATOM     60  ND2 ASN A   1      32.444  27.412  36.810  0.00  0.00    -0.329 N 
ATOM     61 HD21 ASN A   1      32.852  27.896  37.635  0.00  0.00    +0.145 HD
ATOM     62 HD22 ASN A   1      32.772  26.460  36.552  0.00  0.00    +0.145 HD
ATOM     63  OD1 ASN A   1      31.080  29.132  36.346  0.00  0.00    -0.275 OA
ENDBRANCH  58  59
ENDBRANCH  55  58
ENDBRANCH  51  55
ENDBRANCH  50  53
ENDBRANCH  46  50
ENDBRANCH  45  48
ENDBRANCH  41  45
ENDBRANCH  40  42
BRANCH  40  64
ATOM     64  CB  LEU A   4      33.377  21.391  32.104  0.00  0.00    +0.029 C 
BRANCH  64  65
ATOM     65  CG  LEU A   4      34.403  20.726  33.027  0.00  0.00    +0.002 C 
ATOM     66  CD2 LEU A   4      34.017  20.939  34.469  0.00  0.00    +0.000 C 
ATOM     67  CD1 LEU A   4      35.792  21.329  32.770  0.00  0.00    +0.000 C 
ENDBRANCH  64  65
ENDBRANCH  40  64
ENDBRANCH  36  40
ENDBRANCH  35  37
ENDBRANCH   1  35
TORSDOF 26
REMARK  Name = ../refined-set-2016/3l7a/3l7a_pocket.pdb
REMARK  272 active torsions:
REMARK  status: ('A' for Active; 'I' for Inactive)
REMARK    1  A    between atoms: _1  and  _3
REMARK    2  A    between atoms: _3  and  _4
REMARK    3  A    between atoms: _3  and  _6
REMARK    4  A    between atoms: _6  and  _7
REMARK    5  A    between atoms: _12  and  _13
REMARK    6  A    between atoms: _15  and  _17
REMARK    7  A    between atoms: _17  and  _18
REMARK    8  A    between atoms: _17  and  _20
REMARK    9  A    between atoms: _20  and  _21
REMARK   10  A    between atoms: _24  and  _26
REMARK   11  A    between atoms: _26  and  _27
REMARK   12  A    between atoms: _26  and  _29
REMARK   13  A    between atoms: _29  and  _30
REMARK   14  A    between atoms: _30  and  _31
REMARK   15  A    between atoms: _34  and  _36
REMARK   16  A    between atoms: _36  and  _37
REMARK   17  A    between atoms: _36  and  _39
REMARK   18  A    between atoms: _39  and  _40
REMARK   19  A    between atoms: _45  and  _46
REMARK   20  A    between atoms: _48  and  _50
REMARK   21  A    between atoms: _50  and  _51
REMARK   22  A    between atoms: _50  and  _53
REMARK   23  A    between atoms: _53  and  _54
REMARK   24  A    between atoms: _59  and  _61
REMARK   25  A    between atoms: _61  and  _62
REMARK   26  A    between atoms: _64  and  _66
REMARK   27  A    between atoms: _66  and  _67
REMARK   28  A    between atoms: _69  and  _71
REMARK   29  A    between atoms: _71  and  _72
REMARK   30  A    between atoms: _71  and  _74
REMARK   31  A    between atoms: _74  and  _75
REMARK   32  A    between atoms: _78  and  _80
REMARK   33  A    between atoms: _80  and  _81
REMARK   34  A    between atoms: _83  and  _85
REMARK   35  A    between atoms: _85  and  _86
REMARK   36  A    between atoms: _85  and  _88
REMARK   37  A    between atoms: _88  and  _89
REMARK   38  A    between atoms: _89  and  _90
REMARK   39  A    between atoms: _90  and  _91
REMARK   40  A    between atoms: _100  and  _102
REMARK   41  A    between atoms: _102  and  _103
REMARK   42  A    between atoms: _102  and  _105
REMARK   43  A    between atoms: _105  and  _106
REMARK   44  A    between atoms: _109  and  _111
REMARK   45  A    between atoms: _111  and  _112
REMARK   46  A    between atoms: _115  and  _117
REMARK   47  A    between atoms: _117  and  _118
REMARK   48  A    between atoms: _117  and  _120
REMARK   49  A    between atoms: _120  and  _121
REMARK   50  A    between atoms: _127  and  _129
REMARK   51  A    between atoms: _129  and  _130
REMARK   52  A    between atoms: _129  and  _132
REMARK   53  A    between atoms: _132  and  _133
REMARK   54  A    between atoms: _138  and  _139
REMARK   55  A    between atoms: _142  and  _143
REMARK   56  A    between atoms: _148  and  _150
REMARK   57  A    between atoms: _150  and  _151
REMARK   58  A    between atoms: _150  and  _153
REMARK   59  A    between atoms: _153  and  _154
REMARK   60  A    between atoms: _159  and  _161
REMARK   61  A    between atoms: _161  and  _162
REMARK   62  A    between atoms: _161  and  _164
REMARK   63  A    between atoms: _164  and  _165
REMARK   64  A    between atoms: _168  and  _170
REMARK   65  A    between atoms: _170  and  _171
REMARK   66  A    between atoms: _170  and  _173
REMARK   67  A    between atoms: _173  and  _174
REMARK   68  A    between atoms: _179  and  _181
REMARK   69  A    between atoms: _181  and  _182
REMARK   70  A    between atoms: _181  and  _184
REMARK   71  A    between atoms: _184  and  _185
REMARK   72  A    between atoms: _191  and  _193
REMARK   73  A    between atoms: _193  and  _194
REMARK   74  A    between atoms: _193  and  _196
REMARK   75  A    between atoms: _196  and  _197
REMARK   76  A    between atoms: _203  and  _205
REMARK   77  A    between atoms: _205  and  _206
REMARK   78  A    between atoms: _205  and  _208
REMARK   79  A    between atoms: _208  and  _209
REMARK   80  A    between atoms: _209  and  _210
REMARK   81  A    between atoms: _213  and  _215
REMARK   82  A    between atoms: _215  and  _216
REMARK   83  A    between atoms: _218  and  _220
REMARK   84  A    between atoms: _220  and  _221
REMARK   85  A    between atoms: _220  and  _223
REMARK   86  A    between atoms: _223  and  _224
REMARK   87  A    between atoms: _224  and  _225
REMARK   88  A    between atoms: _225  and  _226
REMARK   89  A    between atoms: _235  and  _237
REMARK   90  A    between atoms: _237  and  _238
REMARK   91  A    between atoms: _237  and  _240
REMARK   92  A    between atoms: _240  and  _241
REMARK   93  A    between atoms: _241  and  _242
REMARK   94  A    between atoms: _245  and  _247
REMARK   95  A    between atoms: _247  and  _248
REMARK   96  A    between atoms: _247  and  _250
REMARK   97  A    between atoms: _250  and  _251
REMARK   98  A    between atoms: _256  and  _258
REMARK   99  A    between atoms: _258  and  _259
REMARK  100  A    between atoms: _258  and  _261
REMARK  101  A    between atoms: _261  and  _262
REMARK  102  A    between atoms: _265  and  _267
REMARK  103  A    between atoms: _267  and  _268
REMARK  104  A    between atoms: _267  and  _270
REMARK  105  A    between atoms: _270  and  _271
REMARK  106  A    between atoms: _274  and  _276
REMARK  107  A    between atoms: _276  and  _277
REMARK  108  A    between atoms: _276  and  _279
REMARK  109  A    between atoms: _279  and  _280
REMARK  110  A    between atoms: _285  and  _287
REMARK  111  A    between atoms: _287  and  _288
REMARK  112  A    between atoms: _287  and  _290
REMARK  113  A    between atoms: _290  and  _291
REMARK  114  A    between atoms: _294  and  _296
REMARK  115  A    between atoms: _296  and  _297
REMARK  116  A    between atoms: _296  and  _299
REMARK  117  A    between atoms: _299  and  _300
REMARK  118  A    between atoms: _305  and  _307
REMARK  119  A    between atoms: _307  and  _308
REMARK  120  A    between atoms: _307  and  _310
REMARK  121  A    between atoms: _310  and  _311
REMARK  122  A    between atoms: _316  and  _318
REMARK  123  A    between atoms: _318  and  _319
REMARK  124  A    between atoms: _318  and  _321
REMARK  125  A    between atoms: _321  and  _322
REMARK  126  A    between atoms: _325  and  _327
REMARK  127  A    between atoms: _327  and  _328
REMARK  128  A    between atoms: _327  and  _330
REMARK  129  A    between atoms: _333  and  _335
REMARK  130  A    between atoms: _335  and  _336
REMARK  131  A    between atoms: _335  and  _338
REMARK  132  A    between atoms: _338  and  _339
REMARK  133  A    between atoms: _342  and  _344
REMARK  134  A    between atoms: _344  and  _345
REMARK  135  A    between atoms: _344  and  _347
REMARK  136  A    between atoms: _347  and  _348
REMARK  137  A    between atoms: _348  and  _349
REMARK  138  A    between atoms: _352  and  _354
REMARK  139  A    between atoms: _354  and  _355
REMARK  140  A    between atoms: _358  and  _360
REMARK  141  A    between atoms: _360  and  _361
REMARK  142  A    between atoms: _360  and  _363
REMARK  143  A    between atoms: _363  and  _364
REMARK  144  A    between atoms: _367  and  _369
REMARK  145  A    between atoms: _369  and  _370
REMARK  146  A    between atoms: _369  and  _372
REMARK  147  A    between atoms: _372  and  _373
REMARK  148  A    between atoms: _373  and  _374
REMARK  149  A    between atoms: _377  and  _379
REMARK  150  A    between atoms: _379  and  _380
REMARK  151  A    between atoms: _379  and  _382
REMARK  152  A    between atoms: _382  and  _383
REMARK  153  A    between atoms: _383  and  _384
REMARK  154  A    between atoms: _384  and  _385
REMARK  155  A    between atoms: _394  and  _396
REMARK  156  A    between atoms: _396  and  _397
REMARK  157  A    between atoms: _396  and  _399
REMARK  158  A    between atoms: _399  and  _400
REMARK  159  A    between atoms: _410  and  _412
REMARK  160  A    between atoms: _412  and  _413
REMARK  161  A    between atoms: _412  and  _415
REMARK  162  A    between atoms: _415  and  _416
REMARK  163  A    between atoms: _421  and  _423
REMARK  164  A    between atoms: _423  and  _424
REMARK  165  A    between atoms: _426  and  _428
REMARK  166  A    between atoms: _428  and  _429
REMARK  167  A    between atoms: _428  and  _431
REMARK  168  A    between atoms: _434  and  _436
REMARK  169  A    between atoms: _436  and  _437
REMARK  170  A    between atoms: _440  and  _442
REMARK  171  A    between atoms: _442  and  _443
REMARK  172  A    between atoms: _442  and  _445
REMARK  173  A    between atoms: _445  and  _446
REMARK  174  A    between atoms: _451  and  _453
REMARK  175  A    between atoms: _453  and  _454
REMARK  176  A    between atoms: _453  and  _456
REMARK  177  A    between atoms: _456  and  _457
REMARK  178  A    between atoms: _457  and  _458
REMARK  179  A    between atoms: _458  and  _459
REMARK  180  A    between atoms: _459  and  _460
REMARK  181  A    between atoms: _464  and  _466
REMARK  182  A    between atoms: _466  and  _467
REMARK  183  A    between atoms: _466  and  _469
REMARK  184  A    between atoms: _469  and  _470
REMARK  185  A    between atoms: _475  and  _477
REMARK  186  A    between atoms: _477  and  _478
REMARK  187  A    between atoms: _480  and  _482
REMARK  188  A    between atoms: _482  and  _483
REMARK  189  A    between atoms: _482  and  _485
REMARK  190  A    between atoms: _485  and  _486
REMARK  191  A    between atoms: _486  and  _487
REMARK  192  A    between atoms: _487  and  _488
REMARK  193  A    between atoms: _488  and  _489
REMARK  194  A    between atoms: _493  and  _495
REMARK  195  A    between atoms: _495  and  _496
REMARK  196  A    between atoms: _495  and  _498
REMARK  197  A    between atoms: _498  and  _499
REMARK  198  A    between atoms: _499  and  _500
REMARK  199  A    between atoms: _500  and  _501
REMARK  200  A    between atoms: _510  and  _512
REMARK  201  A    between atoms: _512  and  _513
REMARK  202  A    between atoms: _512  and  _515
REMARK  203  A    between atoms: _515  and  _516
REMARK  204  A    between atoms: _521  and  _522
REMARK  205  A    between atoms: _524  and  _526
REMARK  206  A    between atoms: _526  and  _527
REMARK  207  A    between atoms: _526  and  _529
REMARK  208  A    between atoms: _529  and  _530
REMARK  209  A    between atoms: _530  and  _531
REMARK  210  A    between atoms: _531  and  _532
REMARK  211  A    between atoms: _532  and  _533
REMARK  212  A    between atoms: _537  and  _539
REMARK  213  A    between atoms: _539  and  _540
REMARK  214  A    between atoms: _539  and  _542
REMARK  215  A    between atoms: _542  and  _543
REMARK  216  A    between atoms: _545  and  _547
REMARK  217  A    between atoms: _547  and  _548
REMARK  218  A    between atoms: _547  and  _550
REMARK  219  A    between atoms: _550  and  _551
REMARK  220  A    between atoms: _554  and  _556
REMARK  221  A    between atoms: _556  and  _557
REMARK  222  A    between atoms: _556  and  _559
REMARK  223  A    between atoms: _559  and  _560
REMARK  224  A    between atoms: _560  and  _561
REMARK  225  A    between atoms: _564  and  _566
REMARK  226  A    between atoms: _566  and  _567
REMARK  227  A    between atoms: _570  and  _572
REMARK  228  A    between atoms: _572  and  _573
REMARK  229  A    between atoms: _572  and  _575
REMARK  230  A    between atoms: _575  and  _576
REMARK  231  A    between atoms: _578  and  _580
REMARK  232  A    between atoms: _580  and  _581
REMARK  233  A    between atoms: _583  and  _585
REMARK  234  A    between atoms: _585  and  _586
REMARK  235  A    between atoms: _585  and  _588
REMARK  236  A    between atoms: _588  and  _589
REMARK  237  A    between atoms: _592  and  _594
REMARK  238  A    between atoms: _594  and  _595
REMARK  239  A    between atoms: _597  and  _599
REMARK  240  A    between atoms: _599  and  _600
REMARK  241  A    between atoms: _599  and  _602
REMARK  242  A    between atoms: _602  and  _603
REMARK  243  A    between atoms: _608  and  _610
REMARK  244  A    between atoms: _610  and  _611
REMARK  245  A    between atoms: _610  and  _613
REMARK  246  A    between atoms: _613  and  _614
REMARK  247  A    between atoms: _614  and  _615
REMARK  248  A    between atoms: _622  and  _623
REMARK  249  A    between atoms: _623  and  _639
REMARK  250  A    between atoms: _624  and  _626
REMARK  251  A    between atoms: _626  and  _627
REMARK  252  A    between atoms: _627  and  _628
REMARK  253  A    between atoms: _632  and  _634
REMARK  254  A    between atoms: _634  and  _635
REMARK  255  A    between atoms: _634  and  _642
REMARK  256  A    between atoms: _635  and  _636
REMARK  257  A    between atoms: _636  and  _637
REMARK  258  A    between atoms: _637  and  _638
REMARK  259  A    between atoms: _638  and  _639
REMARK  260  A    between atoms: _644  and  _646
REMARK  261  A    between atoms: _646  and  _647
REMARK  262  A    between atoms: _646  and  _649
REMARK  263  A    between atoms: _649  and  _650
REMARK  264  A    between atoms: _653  and  _655
REMARK  265  A    between atoms: _655  and  _656
REMARK  266  A    between atoms: _658  and  _660
REMARK  267  A    between atoms: _660  and  _661
REMARK  268  A    between atoms: _664  and  _666
REMARK  269  A    between atoms: _666  and  _667
REMARK  270  A    between atoms: _666  and  _669
REMARK  271  A    between atoms: _669  and  _670
REMARK  272  A    between atoms: _675  and  _676
REMARK                            x       y       z     vdW  Elec       q    Type
REMARK                         _______ _______ _______ _____ _____    ______ ____
ROOT
ATOM      1  CB  PHE A   1      29.243  11.352  32.985  0.00  0.00    +0.051 C 
ENDROOT
BRANCH   1   2
ATOM      2  CG  PHE A   1      29.926  11.582  31.661  0.00  0.00    -0.020 A 
ATOM      3  CD2 PHE A   1      31.314  11.715  31.600  0.00  0.00    -0.004 A 
ATOM      4  CE2 PHE A   1      31.953  11.928  30.368  0.00  0.00    -0.000 A 
ATOM      5  CZ  PHE A   1      31.206  12.016  29.201  0.00  0.00    -0.000 A 
ATOM      6  CE1 PHE A   1      29.819  11.891  29.251  0.00  0.00    -0.000 A 
ATOM      7  CD1 PHE A   1      29.189  11.679  30.477  0.00  0.00    -0.004 A 
ENDBRANCH   1   2
BRANCH   1   8
ATOM      8  CA  PHE A   1      27.758  11.004  32.861  0.00  0.00    +0.137 C 
BRANCH   8   9
ATOM      9  N   PHE A   1      26.947  12.209  32.655  0.00  0.00    -0.239 NA
ATOM     10  H   PHE A   1      27.404  13.142  32.698  0.00  0.00    +0.142 HD
ENDBRANCH   8   9
BRANCH   8  11
ATOM     11  C   PHE A   1      27.301  10.165  34.053  0.00  0.00    +0.224 C 
ATOM     12  O   PHE A   1      27.206   8.939  33.950  0.00  0.00    -0.287 OA
ENDBRANCH   8  11
ENDBRANCH   1   8
TORSDOF 4
REMARK  Name = ../refined-set-2016/3l7a/3l7a_pocket.pdb
REMARK  272 active torsions:
REMARK  status: ('A' for Active; 'I' for Inactive)
REMARK    1  A    between atoms: _1  and  _3
REMARK    2  A    between atoms: _3  and  _4
REMARK    3  A    between atoms: _3  and  _6
REMARK    4  A    between atoms: _6  and  _7
REMARK    5  A    between atoms: _12  and  _13
REMARK    6  A    between atoms: _15  and  _17
REMARK    7  A    between atoms: _17  and  _18
REMARK    8  A    between atoms: _17  and  _20
REMARK    9  A    between atoms: _20  and  _21
REMARK   10  A    between atoms: _24  and  _26
REMARK   11  A    between atoms: _26  and  _27
REMARK   12  A    between atoms: _26  and  _29
REMARK   13  A    between atoms: _29  and  _30
REMARK   14  A    between atoms: _30  and  _31
REMARK   15  A    between atoms: _34  and  _36
REMARK   16  A    between atoms: _36  and  _37
REMARK   17  A    between atoms: _36  and  _39
REMARK   18  A    between atoms: _39  and  _40
REMARK   19  A    between atoms: _45  and  _46
REMARK   20  A    between atoms: _48  and  _50
REMARK   21  A    between atoms: _50  and  _51
REMARK   22  A    between atoms: _50  and  _53
REMARK   23  A    between atoms: _53  and  _54
REMARK   24  A    between atoms: _59  and  _61
REMARK   25  A    between atoms: _61  and  _62
REMARK   26  A    between atoms: _64  and  _66
REMARK   27  A    between atoms: _66  and  _67
REMARK   28  A    between atoms: _69  and  _71
REMARK   29  A    between atoms: _71  and  _72
REMARK   30  A    between atoms: _71  and  _74
REMARK   31  A    between atoms: _74  and  _75
REMARK   32  A    between atoms: _78  and  _80
REMARK   33  A    between atoms: _80  and  _81
REMARK   34  A    between atoms: _83  and  _85
REMARK   35  A    between atoms: _85  and  _86
REMARK   36  A    between atoms: _85  and  _88
REMARK   37  A    between atoms: _88  and  _89
REMARK   38  A    between atoms: _89  and  _90
REMARK   39  A    between atoms: _90  and  _91
REMARK   40  A    between atoms: _100  and  _102
REMARK   41  A    between atoms: _102  and  _103
REMARK   42  A    between atoms: _102  and  _105
REMARK   43  A    between atoms: _105  and  _106
REMARK   44  A    between atoms: _109  and  _111
REMARK   45  A    between atoms: _111  and  _112
REMARK   46  A    between atoms: _115  and  _117
REMARK   47  A    between atoms: _117  and  _118
REMARK   48  A    between atoms: _117  and  _120
REMARK   49  A    between atoms: _120  and  _121
REMARK   50  A    between atoms: _127  and  _129
REMARK   51  A    between atoms: _129  and  _130
REMARK   52  A    between atoms: _129  and  _132
REMARK   53  A    between atoms: _132  and  _133
REMARK   54  A    between atoms: _138  and  _139
REMARK   55  A    between atoms: _142  and  _143
REMARK   56  A    between atoms: _148  and  _150
REMARK   57  A    between atoms: _150  and  _151
REMARK   58  A    between atoms: _150  and  _153
REMARK   59  A    between atoms: _153  and  _154
REMARK   60  A    between atoms: _159  and  _161
REMARK   61  A    between atoms: _161  and  _162
REMARK   62  A    between atoms: _161  and  _164
REMARK   63  A    between atoms: _164  and  _165
REMARK   64  A    between atoms: _168  and  _170
REMARK   65  A    between atoms: _170  and  _171
REMARK   66  A    between atoms: _170  and  _173
REMARK   67  A    between atoms: _173  and  _174
REMARK   68  A    between atoms: _179  and  _181
REMARK   69  A    between atoms: _181  and  _182
REMARK   70  A    between atoms: _181  and  _184
REMARK   71  A    between atoms: _184  and  _185
REMARK   72  A    between atoms: _191  and  _193
REMARK   73  A    between atoms: _193  and  _194
REMARK   74  A    between atoms: _193  and  _196
REMARK   75  A    between atoms: _196  and  _197
REMARK   76  A    between atoms: _203  and  _205
REMARK   77  A    between atoms: _205  and  _206
REMARK   78  A    between atoms: _205  and  _208
REMARK   79  A    between atoms: _208  and  _209
REMARK   80  A    between atoms: _209  and  _210
REMARK   81  A    between atoms: _213  and  _215
REMARK   82  A    between atoms: _215  and  _216
REMARK   83  A    between atoms: _218  and  _220
REMARK   84  A    between atoms: _220  and  _221
REMARK   85  A    between atoms: _220  and  _223
REMARK   86  A    between atoms: _223  and  _224
REMARK   87  A    between atoms: _224  and  _225
REMARK   88  A    between atoms: _225  and  _226
REMARK   89  A    between atoms: _235  and  _237
REMARK   90  A    between atoms: _237  and  _238
REMARK   91  A    between atoms: _237  and  _240
REMARK   92  A    between atoms: _240  and  _241
REMARK   93  A    between atoms: _241  and  _242
REMARK   94  A    between atoms: _245  and  _247
REMARK   95  A    between atoms: _247  and  _248
REMARK   96  A    between atoms: _247  and  _250
REMARK   97  A    between atoms: _250  and  _251
REMARK   98  A    between atoms: _256  and  _258
REMARK   99  A    between atoms: _258  and  _259
REMARK  100  A    between atoms: _258  and  _261
REMARK  101  A    between atoms: _261  and  _262
REMARK  102  A    between atoms: _265  and  _267
REMARK  103  A    between atoms: _267  and  _268
REMARK  104  A    between atoms: _267  and  _270
REMARK  105  A    between atoms: _270  and  _271
REMARK  106  A    between atoms: _274  and  _276
REMARK  107  A    between atoms: _276  and  _277
REMARK  108  A    between atoms: _276  and  _279
REMARK  109  A    between atoms: _279  and  _280
REMARK  110  A    between atoms: _285  and  _287
REMARK  111  A    between atoms: _287  and  _288
REMARK  112  A    between atoms: _287  and  _290
REMARK  113  A    between atoms: _290  and  _291
REMARK  114  A    between atoms: _294  and  _296
REMARK  115  A    between atoms: _296  and  _297
REMARK  116  A    between atoms: _296  and  _299
REMARK  117  A    between atoms: _299  and  _300
REMARK  118  A    between atoms: _305  and  _307
REMARK  119  A    between atoms: _307  and  _308
REMARK  120  A    between atoms: _307  and  _310
REMARK  121  A    between atoms: _310  and  _311
REMARK  122  A    between atoms: _316  and  _318
REMARK  123  A    between atoms: _318  and  _319
REMARK  124  A    between atoms: _318  and  _321
REMARK  125  A    between atoms: _321  and  _322
REMARK  126  A    between atoms: _325  and  _327
REMARK  127  A    between atoms: _327  and  _328
REMARK  128  A    between atoms: _327  and  _330
REMARK  129  A    between atoms: _333  and  _335
REMARK  130  A    between atoms: _335  and  _336
REMARK  131  A    between atoms: _335  and  _338
REMARK  132  A    between atoms: _338  and  _339
REMARK  133  A    between atoms: _342  and  _344
REMARK  134  A    between atoms: _344  and  _345
REMARK  135  A    between atoms: _344  and  _347
REMARK  136  A    between atoms: _347  and  _348
REMARK  137  A    between atoms: _348  and  _349
REMARK  138  A    between atoms: _352  and  _354
REMARK  139  A    between atoms: _354  and  _355
REMARK  140  A    between atoms: _358  and  _360
REMARK  141  A    between atoms: _360  and  _361
REMARK  142  A    between atoms: _360  and  _363
REMARK  143  A    between atoms: _363  and  _364
REMARK  144  A    between atoms: _367  and  _369
REMARK  145  A    between atoms: _369  and  _370
REMARK  146  A    between atoms: _369  and  _372
REMARK  147  A    between atoms: _372  and  _373
REMARK  148  A    between atoms: _373  and  _374
REMARK  149  A    between atoms: _377  and  _379
REMARK  150  A    between atoms: _379  and  _380
REMARK  151  A    between atoms: _379  and  _382
REMARK  152  A    between atoms: _382  and  _383
REMARK  153  A    between atoms: _383  and  _384
REMARK  154  A    between atoms: _384  and  _385
REMARK  155  A    between atoms: _394  and  _396
REMARK  156  A    between atoms: _396  and  _397
REMARK  157  A    between atoms: _396  and  _399
REMARK  158  A    between atoms: _399  and  _400
REMARK  159  A    between atoms: _410  and  _412
REMARK  160  A    between atoms: _412  and  _413
REMARK  161  A    between atoms: _412  and  _415
REMARK  162  A    between atoms: _415  and  _416
REMARK  163  A    between atoms: _421  and  _423
REMARK  164  A    between atoms: _423  and  _424
REMARK  165  A    between atoms: _426  and  _428
REMARK  166  A    between atoms: _428  and  _429
REMARK  167  A    between atoms: _428  and  _431
REMARK  168  A    between atoms: _434  and  _436
REMARK  169  A    between atoms: _436  and  _437
REMARK  170  A    between atoms: _440  and  _442
REMARK  171  A    between atoms: _442  and  _443
REMARK  172  A    between atoms: _442  and  _445
REMARK  173  A    between atoms: _445  and  _446
REMARK  174  A    between atoms: _451  and  _453
REMARK  175  A    between atoms: _453  and  _454
REMARK  176  A    between atoms: _453  and  _456
REMARK  177  A    between atoms: _456  and  _457
REMARK  178  A    between atoms: _457  and  _458
REMARK  179  A    between atoms: _458  and  _459
REMARK  180  A    between atoms: _459  and  _460
REMARK  181  A    between atoms: _464  and  _466
REMARK  182  A    between atoms: _466  and  _467
REMARK  183  A    between atoms: _466  and  _469
REMARK  184  A    between atoms: _469  and  _470
REMARK  185  A    between atoms: _475  and  _477
REMARK  186  A    between atoms: _477  and  _478
REMARK  187  A    between atoms: _480  and  _482
REMARK  188  A    between atoms: _482  and  _483
REMARK  189  A    between atoms: _482  and  _485
REMARK  190  A    between atoms: _485  and  _486
REMARK  191  A    between atoms: _486  and  _487
REMARK  192  A    between atoms: _487  and  _488
REMARK  193  A    between atoms: _488  and  _489
REMARK  194  A    between atoms: _493  and  _495
REMARK  195  A    between atoms: _495  and  _496
REMARK  196  A    between atoms: _495  and  _498
REMARK  197  A    between atoms: _498  and  _499
REMARK  198  A    between atoms: _499  and  _500
REMARK  199  A    between atoms: _500  and  _501
REMARK  200  A    between atoms: _510  and  _512
REMARK  201  A    between atoms: _512  and  _513
REMARK  202  A    between atoms: _512  and  _515
REMARK  203  A    between atoms: _515  and  _516
REMARK  204  A    between atoms: _521  and  _522
REMARK  205  A    between atoms: _524  and  _526
REMARK  206  A    between atoms: _526  and  _527
REMARK  207  A    between atoms: _526  and  _529
REMARK  208  A    between atoms: _529  and  _530
REMARK  209  A    between atoms: _530  and  _531
REMARK  210  A    between atoms: _531  and  _532
REMARK  211  A    between atoms: _532  and  _533
REMARK  212  A    between atoms: _537  and  _539
REMARK  213  A    between atoms: _539  and  _540
REMARK  214  A    between atoms: _539  and  _542
REMARK  215  A    between atoms: _542  and  _543
REMARK  216  A    between atoms: _545  and  _547
REMARK  217  A    between atoms: _547  and  _548
REMARK  218  A    between atoms: _547  and  _550
REMARK  219  A    between atoms: _550  and  _551
REMARK  220  A    between atoms: _554  and  _556
REMARK  221  A    between atoms: _556  and  _557
REMARK  222  A    between atoms: _556  and  _559
REMARK  223  A    between atoms: _559  and  _560
REMARK  224  A    between atoms: _560  and  _561
REMARK  225  A    between atoms: _564  and  _566
REMARK  226  A    between atoms: _566  and  _567
REMARK  227  A    between atoms: _570  and  _572
REMARK  228  A    between atoms: _572  and  _573
REMARK  229  A    between atoms: _572  and  _575
REMARK  230  A    between atoms: _575  and  _576
REMARK  231  A    between atoms: _578  and  _580
REMARK  232  A    between atoms: _580  and  _581
REMARK  233  A    between atoms: _583  and  _585
REMARK  234  A    between atoms: _585  and  _586
REMARK  235  A    between atoms: _585  and  _588
REMARK  236  A    between atoms: _588  and  _589
REMARK  237  A    between atoms: _592  and  _594
REMARK  238  A    between atoms: _594  and  _595
REMARK  239  A    between atoms: _597  and  _599
REMARK  240  A    between atoms: _599  and  _600
REMARK  241  A    between atoms: _599  and  _602
REMARK  242  A    between atoms: _602  and  _603
REMARK  243  A    between atoms: _608  and  _610
REMARK  244  A    between atoms: _610  and  _611
REMARK  245  A    between atoms: _610  and  _613
REMARK  246  A    between atoms: _613  and  _614
REMARK  247  A    between atoms: _614  and  _615
REMARK  248  A    between atoms: _622  and  _623
REMARK  249  A    between atoms: _623  and  _639
REMARK  250  A    between atoms: _624  and  _626
REMARK  251  A    between atoms: _626  and  _627
REMARK  252  A    between atoms: _627  and  _628
REMARK  253  A    between atoms: _632  and  _634
REMARK  254  A    between atoms: _634  and  _635
REMARK  255  A    between atoms: _634  and  _642
REMARK  256  A    between atoms: _635  and  _636
REMARK  257  A    between atoms: _636  and  _637
REMARK  258  A    between atoms: _637  and  _638
REMARK  259  A    between atoms: _638  and  _639
REMARK  260  A    between atoms: _644  and  _646
REMARK  261  A    between atoms: _646  and  _647
REMARK  262  A    between atoms: _646  and  _649
REMARK  263  A    between atoms: _649  and  _650
REMARK  264  A    between atoms: _653  and  _655
REMARK  265  A    between atoms: _655  and  _656
REMARK  266  A    between atoms: _658  and  _660
REMARK  267  A    between atoms: _660  and  _661
REMARK  268  A    between atoms: _664  and  _666
REMARK  269  A    between atoms: _666  and  _667
REMARK  270  A    between atoms: _666  and  _669
REMARK  271  A    between atoms: _669  and  _670
REMARK  272  A    between atoms: _675  and  _676
REMARK                            x       y       z     vdW  Elec       q    Type
REMARK                         _______ _______ _______ _____ _____    ______ ____
ROOT
ATOM      1  CA  ASN A   5      37.136  28.491  30.075  0.00  0.00    +0.158 C 
ENDROOT
BRANCH   1   2
ATOM      2  C   ASN A   5      38.087  29.669  30.350  0.00  0.00    +0.241 C 
ATOM      3  N   PHE A   6      38.543  29.802  31.598  0.00  0.00    -0.297 N 
ATOM      4  H   PHE A   6      38.195  29.152  32.332  0.00  0.00    +0.150 HD
ATOM      5  O   ASN A   5      38.380  30.451  29.450  0.00  0.00    -0.273 OA
BRANCH   3   6
ATOM      6  CA  PHE A   6      39.523  30.839  31.971  0.00  0.00    +0.153 C 
BRANCH   6   7
ATOM      7  C   PHE A   6      40.210  30.533  33.308  0.00  0.00    +0.241 C 
ATOM      8  O   PHE A   6      39.537  30.187  34.284  0.00  0.00    -0.273 OA
ATOM      9  N   PHE A   7      41.540  30.675  33.347  0.00  0.00    -0.297 N 
ATOM     10  H   PHE A   7      42.031  31.047  32.509  0.00  0.00    +0.150 HD
BRANCH   9  11
ATOM     11  CA  PHE A   7      42.331  30.322  34.535  0.00  0.00    +0.153 C 
BRANCH  11  12
ATOM     12  C   PHE A   7      42.748  31.510  35.399  0.00  0.00    +0.241 C 
ATOM     13  N   GLU A   8      42.358  31.441  36.667  0.00  0.00    -0.297 N 
ATOM     14  H   GLU A   8      41.763  30.637  36.952  0.00  0.00    +0.150 HD
ATOM     15  O   PHE A   7      43.425  32.431  34.936  0.00  0.00    -0.273 OA
BRANCH  13  16
ATOM     16  CA  GLU A   8      42.713  32.423  37.684  0.00  0.00    +0.149 C 
BRANCH  16  17
ATOM     17  C   GLU A   8      43.498  31.685  38.778  0.00  0.00    +0.241 C 
ATOM     18  O   GLU A   8      42.954  30.799  39.450  0.00  0.00    -0.273 OA
ATOM     19  N   GLY A   9      44.769  32.044  38.943  0.00  0.00    -0.296 N 
ATOM     20  H   GLY A   9      45.143  32.837  38.383  0.00  0.00    +0.150 HD
BRANCH  19  21
ATOM     21  CA  GLY A   9      45.660  31.363  39.884  0.00  0.00    +0.163 C 
BRANCH  21  22
ATOM     22  C   GLY A   9      45.542  31.845  41.323  0.00  0.00    +0.229 C 
ATOM     23  O   GLY A   9      46.520  32.307  41.920  0.00  0.00    -0.286 OA
ENDBRANCH  21  22
ENDBRANCH  19  21
ENDBRANCH  16  17
BRANCH  16  24
ATOM     24  CB  GLU A   8      41.422  33.016  38.256  0.00  0.00    +0.041 C 
BRANCH  24  25
ATOM     25  CG  GLU A   8      41.534  34.399  38.872  0.00  0.00    +0.116 C 
BRANCH  25  26
ATOM     26  CD  GLU A   8      40.220  34.848  39.530  0.00  0.00    +0.365 C 
ATOM     27  OE2 GLU A   8      40.272  35.674  40.472  0.00  0.00    -0.246 OA
ATOM     28  OE1 GLU A   8      39.133  34.368  39.114  0.00  0.00    -0.246 OA
ENDBRANCH  25  26
ENDBRANCH  24  25
ENDBRANCH  16  24
ENDBRANCH  13  16
ENDBRANCH  11  12
BRANCH  11  29
ATOM     29  CB  PHE A   7      43.579  29.495  34.167  0.00  0.00    +0.055 C 
BRANCH  29  30
ATOM     30  CG  PHE A   7      44.496  29.214  35.342  0.00  0.00    -0.020 A 
ATOM     31  CD2 PHE A   7      44.061  28.439  36.416  0.00  0.00    -0.004 A 
ATOM     32  CE2 PHE A   7      44.904  28.182  37.504  0.00  0.00    -0.000 A 
ATOM     33  CZ  PHE A   7      46.191  28.704  37.522  0.00  0.00    -0.000 A 
ATOM     34  CE1 PHE A   7      46.638  29.485  36.461  0.00  0.00    -0.000 A 
ATOM     35  CD1 PHE A   7      45.789  29.739  35.379  0.00  0.00    -0.004 A 
ENDBRANCH  29  30
ENDBRANCH  11  29
ENDBRANCH   9  11
ENDBRANCH   6   7
BRANCH   6  36
ATOM     36  CB  PHE A   6      38.879  32.229  32.013  0.00  0.00    +0.055 C 
BRANCH  36  37
ATOM     37  CG  PHE A   6      39.847  33.333  32.346  0.00  0.00    -0.020 A 
ATOM     38  CD2 PHE A   6      39.842  33.922  33.607  0.00  0.00    -0.004 A 
ATOM     39  CE2 PHE A   6      40.745  34.943  33.927  0.00  0.00    -0.000 A 
ATOM     40  CZ  PHE A   6      41.664  35.373  32.978  0.00  0.00    -0.000 A 
ATOM     41  CE1 PHE A   6      41.676  34.788  31.711  0.00  0.00    -0.000 A 
ATOM     42  CD1 PHE A   6      40.768  33.773  31.405  0.00  0.00    -0.004 A 
ENDBRANCH  36  37
ENDBRANCH   6  36
ENDBRANCH   3   6
ENDBRANCH   1   2
BRANCH   1  44
ATOM     43  C   ASP A   4      35.297  29.419  31.369  0.00  0.00    +0.241 C 
ATOM     44  N   ASN A   5      36.063  28.376  31.069  0.00  0.00    -0.297 N 
ATOM     45  H   ASN A   5      35.900  27.466  31.545  0.00  0.00    +0.150 HD
ATOM     46  O   ASP A   4      35.473  30.533  30.874  0.00  0.00    -0.273 OA
BRANCH  43  47
ATOM     47  CA  ASP A   4      34.191  29.204  32.396  0.00  0.00    +0.160 C 
BRANCH  47  50
ATOM     48  C   ASN A   3      34.816  29.917  34.662  0.00  0.00    +0.241 C 
ATOM     49  O   ASN A   3      34.906  28.768  35.113  0.00  0.00    -0.273 OA
ATOM     50  N   ASP A   4      34.492  30.199  33.408  0.00  0.00    -0.297 N 
ATOM     51  H   ASP A   4      34.451  31.201  33.131  0.00  0.00    +0.150 HD
BRANCH  48  52
ATOM     52  CA  ASN A   3      35.083  31.127  35.538  0.00  0.00    +0.158 C 
BRANCH  52  54
ATOM     53  C   PRO A   2      33.113  31.522  36.952  0.00  0.00    +0.241 C 
ATOM     54  N   ASN A   3      34.370  31.113  36.828  0.00  0.00    -0.297 N 
ATOM     55  H   ASN A   3      34.870  30.770  37.673  0.00  0.00    +0.150 HD
ATOM     56  O   PRO A   2      32.486  32.047  36.032  0.00  0.00    -0.273 OA
BRANCH  53  62
ATOM     57  C   TYR A   1      33.845  30.012  39.845  0.00  0.00    +0.242 C 
ATOM     58  N   PRO A   2      33.342  31.205  39.475  0.00  0.00    -0.272 N 
ATOM     59  CD  PRO A   2      33.550  32.505  40.148  0.00  0.00    +0.094 C 
ATOM     60  CG  PRO A   2      32.598  33.443  39.431  0.00  0.00    +0.024 C 
ATOM     61  CB  PRO A   2      31.608  32.562  38.692  0.00  0.00    +0.031 C 
ATOM     62  CA  PRO A   2      32.438  31.329  38.327  0.00  0.00    +0.152 C 
ATOM     63  O   TYR A   1      33.672  28.984  39.197  0.00  0.00    -0.273 OA
BRANCH  57  64
ATOM     64  CA  TYR A   1      34.612  29.950  41.166  0.00  0.00    +0.149 C 
BRANCH  64  65
ATOM     65  N   TYR A   1      33.989  28.942  42.034  0.00  0.00    -0.238 NA
ATOM     66  H   TYR A   1      34.519  28.083  42.285  0.00  0.00    +0.142 HD
ENDBRANCH  64  65
BRANCH  64  67
ATOM     67  CB  TYR A   1      36.083  29.624  40.925  0.00  0.00    +0.053 C 
BRANCH  67  68
ATOM     68  CG  TYR A   1      36.971  30.170  42.015  0.00  0.00    -0.020 A 
ATOM     69  CD2 TYR A   1      37.150  29.476  43.216  0.00  0.00    -0.001 A 
ATOM     70  CE2 TYR A   1      37.980  29.992  44.238  0.00  0.00    +0.036 A 
ATOM     71  CZ  TYR A   1      38.604  31.217  44.051  0.00  0.00    +0.134 A 
ATOM     72  CE1 TYR A   1      38.434  31.922  42.872  0.00  0.00    +0.036 A 
ATOM     73  CD1 TYR A   1      37.612  31.395  41.857  0.00  0.00    -0.001 A 
BRANCH  71  74
ATOM     74  OH  TYR A   1      39.416  31.743  45.041  0.00  0.00    -0.506 OA
ATOM     75  HH  TYR A   1      39.059  32.621  45.327  0.00  0.00    +0.292 HD
ENDBRANCH  71  74
ENDBRANCH  67  68
ENDBRANCH  64  67
ENDBRANCH  57  64
ENDBRANCH  53  62
ENDBRANCH  52  54
BRANCH  52  76
ATOM     76  CB  ASN A   3      36.578  31.255  35.760  0.00  0.00    +0.114 C 
BRANCH  76  77
ATOM     77  CG  ASN A   3      36.923  32.462  36.578  0.00  0.00    +0.222 C 
ATOM     78  ND2 ASN A   3      37.623  32.243  37.683  0.00  0.00    -0.329 N 
ATOM     79 HD21 ASN A   3      37.875  33.038  38.305  0.00  0.00    +0.145 HD
ATOM     80 HD22 ASN A   3      37.920  31.277  37.928  0.00  0.00    +0.145 HD
ATOM     81  OD1 ASN A   3      36.543  33.588  36.236  0.00  0.00    -0.275 OA
ENDBRANCH  76  77
ENDBRANCH  52  76
ENDBRANCH  48  52
ENDBRANCH  47  50
BRANCH  47  82
ATOM     82  CB  ASP A   4      32.812  29.522  31.787  0.00  0.00    +0.143 C 
BRANCH  82  83
ATOM     83  CG  ASP A   4      32.328  28.468  30.793  0.00  0.00    +0.367 C 
ATOM     84  OD2 ASP A   4      31.765  27.432  31.225  0.00  0.00    -0.246 OA
ATOM     85  OD1 ASP A   4      32.468  28.693  29.564  0.00  0.00    -0.246 OA
ENDBRANCH  82  83
ENDBRANCH  47  82
ENDBRANCH  43  47
ENDBRANCH   1  44
BRANCH   1  86
ATOM     86  CB  ASN A   5      36.547  28.602  28.655  0.00  0.00    +0.114 C 
BRANCH  86  87
ATOM     87  CG  ASN A   5      36.129  27.264  28.088  0.00  0.00    +0.222 C 
ATOM     88  ND2 ASN A   5      34.869  26.894  28.299  0.00  0.00    -0.329 N 
ATOM     89 HD21 ASN A   5      34.231  27.508  28.845  0.00  0.00    +0.145 HD
ATOM     90 HD22 ASN A   5      34.522  25.991  27.918  0.00  0.00    +0.145 HD
ATOM     91  OD1 ASN A   5      36.927  26.577  27.450  0.00  0.00    -0.275 OA
ENDBRANCH  86  87
ENDBRANCH   1  86
TORSDOF 33
REMARK  Name = ../refined-set-2016/3l7a/3l7a_pocket.pdb
REMARK  272 active torsions:
REMARK  status: ('A' for Active; 'I' for Inactive)
REMARK    1  A    between atoms: _1  and  _3
REMARK    2  A    between atoms: _3  and  _4
REMARK    3  A    between atoms: _3  and  _6
REMARK    4  A    between atoms: _6  and  _7
REMARK    5  A    between atoms: _12  and  _13
REMARK    6  A    between atoms: _15  and  _17
REMARK    7  A    between atoms: _17  and  _18
REMARK    8  A    between atoms: _17  and  _20
REMARK    9  A    between atoms: _20  and  _21
REMARK   10  A    between atoms: _24  and  _26
REMARK   11  A    between atoms: _26  and  _27
REMARK   12  A    between atoms: _26  and  _29
REMARK   13  A    between atoms: _29  and  _30
REMARK   14  A    between atoms: _30  and  _31
REMARK   15  A    between atoms: _34  and  _36
REMARK   16  A    between atoms: _36  and  _37
REMARK   17  A    between atoms: _36  and  _39
REMARK   18  A    between atoms: _39  and  _40
REMARK   19  A    between atoms: _45  and  _46
REMARK   20  A    between atoms: _48  and  _50
REMARK   21  A    between atoms: _50  and  _51
REMARK   22  A    between atoms: _50  and  _53
REMARK   23  A    between atoms: _53  and  _54
REMARK   24  A    between atoms: _59  and  _61
REMARK   25  A    between atoms: _61  and  _62
REMARK   26  A    between atoms: _64  and  _66
REMARK   27  A    between atoms: _66  and  _67
REMARK   28  A    between atoms: _69  and  _71
REMARK   29  A    between atoms: _71  and  _72
REMARK   30  A    between atoms: _71  and  _74
REMARK   31  A    between atoms: _74  and  _75
REMARK   32  A    between atoms: _78  and  _80
REMARK   33  A    between atoms: _80  and  _81
REMARK   34  A    between atoms: _83  and  _85
REMARK   35  A    between atoms: _85  and  _86
REMARK   36  A    between atoms: _85  and  _88
REMARK   37  A    between atoms: _88  and  _89
REMARK   38  A    between atoms: _89  and  _90
REMARK   39  A    between atoms: _90  and  _91
REMARK   40  A    between atoms: _100  and  _102
REMARK   41  A    between atoms: _102  and  _103
REMARK   42  A    between atoms: _102  and  _105
REMARK   43  A    between atoms: _105  and  _106
REMARK   44  A    between atoms: _109  and  _111
REMARK   45  A    between atoms: _111  and  _112
REMARK   46  A    between atoms: _115  and  _117
REMARK   47  A    between atoms: _117  and  _118
REMARK   48  A    between atoms: _117  and  _120
REMARK   49  A    between atoms: _120  and  _121
REMARK   50  A    between atoms: _127  and  _129
REMARK   51  A    between atoms: _129  and  _130
REMARK   52  A    between atoms: _129  and  _132
REMARK   53  A    between atoms: _132  and  _133
REMARK   54  A    between atoms: _138  and  _139
REMARK   55  A    between atoms: _142  and  _143
REMARK   56  A    between atoms: _148  and  _150
REMARK   57  A    between atoms: _150  and  _151
REMARK   58  A    between atoms: _150  and  _153
REMARK   59  A    between atoms: _153  and  _154
REMARK   60  A    between atoms: _159  and  _161
REMARK   61  A    between atoms: _161  and  _162
REMARK   62  A    between atoms: _161  and  _164
REMARK   63  A    between atoms: _164  and  _165
REMARK   64  A    between atoms: _168  and  _170
REMARK   65  A    between atoms: _170  and  _171
REMARK   66  A    between atoms: _170  and  _173
REMARK   67  A    between atoms: _173  and  _174
REMARK   68  A    between atoms: _179  and  _181
REMARK   69  A    between atoms: _181  and  _182
REMARK   70  A    between atoms: _181  and  _184
REMARK   71  A    between atoms: _184  and  _185
REMARK   72  A    between atoms: _191  and  _193
REMARK   73  A    between atoms: _193  and  _194
REMARK   74  A    between atoms: _193  and  _196
REMARK   75  A    between atoms: _196  and  _197
REMARK   76  A    between atoms: _203  and  _205
REMARK   77  A    between atoms: _205  and  _206
REMARK   78  A    between atoms: _205  and  _208
REMARK   79  A    between atoms: _208  and  _209
REMARK   80  A    between atoms: _209  and  _210
REMARK   81  A    between atoms: _213  and  _215
REMARK   82  A    between atoms: _215  and  _216
REMARK   83  A    between atoms: _218  and  _220
REMARK   84  A    between atoms: _220  and  _221
REMARK   85  A    between atoms: _220  and  _223
REMARK   86  A    between atoms: _223  and  _224
REMARK   87  A    between atoms: _224  and  _225
REMARK   88  A    between atoms: _225  and  _226
REMARK   89  A    between atoms: _235  and  _237
REMARK   90  A    between atoms: _237  and  _238
REMARK   91  A    between atoms: _237  and  _240
REMARK   92  A    between atoms: _240  and  _241
REMARK   93  A    between atoms: _241  and  _242
REMARK   94  A    between atoms: _245  and  _247
REMARK   95  A    between atoms: _247  and  _248
REMARK   96  A    between atoms: _247  and  _250
REMARK   97  A    between atoms: _250  and  _251
REMARK   98  A    between atoms: _256  and  _258
REMARK   99  A    between atoms: _258  and  _259
REMARK  100  A    between atoms: _258  and  _261
REMARK  101  A    between atoms: _261  and  _262
REMARK  102  A    between atoms: _265  and  _267
REMARK  103  A    between atoms: _267  and  _268
REMARK  104  A    between atoms: _267  and  _270
REMARK  105  A    between atoms: _270  and  _271
REMARK  106  A    between atoms: _274  and  _276
REMARK  107  A    between atoms: _276  and  _277
REMARK  108  A    between atoms: _276  and  _279
REMARK  109  A    between atoms: _279  and  _280
REMARK  110  A    between atoms: _285  and  _287
REMARK  111  A    between atoms: _287  and  _288
REMARK  112  A    between atoms: _287  and  _290
REMARK  113  A    between atoms: _290  and  _291
REMARK  114  A    between atoms: _294  and  _296
REMARK  115  A    between atoms: _296  and  _297
REMARK  116  A    between atoms: _296  and  _299
REMARK  117  A    between atoms: _299  and  _300
REMARK  118  A    between atoms: _305  and  _307
REMARK  119  A    between atoms: _307  and  _308
REMARK  120  A    between atoms: _307  and  _310
REMARK  121  A    between atoms: _310  and  _311
REMARK  122  A    between atoms: _316  and  _318
REMARK  123  A    between atoms: _318  and  _319
REMARK  124  A    between atoms: _318  and  _321
REMARK  125  A    between atoms: _321  and  _322
REMARK  126  A    between atoms: _325  and  _327
REMARK  127  A    between atoms: _327  and  _328
REMARK  128  A    between atoms: _327  and  _330
REMARK  129  A    between atoms: _333  and  _335
REMARK  130  A    between atoms: _335  and  _336
REMARK  131  A    between atoms: _335  and  _338
REMARK  132  A    between atoms: _338  and  _339
REMARK  133  A    between atoms: _342  and  _344
REMARK  134  A    between atoms: _344  and  _345
REMARK  135  A    between atoms: _344  and  _347
REMARK  136  A    between atoms: _347  and  _348
REMARK  137  A    between atoms: _348  and  _349
REMARK  138  A    between atoms: _352  and  _354
REMARK  139  A    between atoms: _354  and  _355
REMARK  140  A    between atoms: _358  and  _360
REMARK  141  A    between atoms: _360  and  _361
REMARK  142  A    between atoms: _360  and  _363
REMARK  143  A    between atoms: _363  and  _364
REMARK  144  A    between atoms: _367  and  _369
REMARK  145  A    between atoms: _369  and  _370
REMARK  146  A    between atoms: _369  and  _372
REMARK  147  A    between atoms: _372  and  _373
REMARK  148  A    between atoms: _373  and  _374
REMARK  149  A    between atoms: _377  and  _379
REMARK  150  A    between atoms: _379  and  _380
REMARK  151  A    between atoms: _379  and  _382
REMARK  152  A    between atoms: _382  and  _383
REMARK  153  A    between atoms: _383  and  _384
REMARK  154  A    between atoms: _384  and  _385
REMARK  155  A    between atoms: _394  and  _396
REMARK  156  A    between atoms: _396  and  _397
REMARK  157  A    between atoms: _396  and  _399
REMARK  158  A    between atoms: _399  and  _400
REMARK  159  A    between atoms: _410  and  _412
REMARK  160  A    between atoms: _412  and  _413
REMARK  161  A    between atoms: _412  and  _415
REMARK  162  A    between atoms: _415  and  _416
REMARK  163  A    between atoms: _421  and  _423
REMARK  164  A    between atoms: _423  and  _424
REMARK  165  A    between atoms: _426  and  _428
REMARK  166  A    between atoms: _428  and  _429
REMARK  167  A    between atoms: _428  and  _431
REMARK  168  A    between atoms: _434  and  _436
REMARK  169  A    between atoms: _436  and  _437
REMARK  170  A    between atoms: _440  and  _442
REMARK  171  A    between atoms: _442  and  _443
REMARK  172  A    between atoms: _442  and  _445
REMARK  173  A    between atoms: _445  and  _446
REMARK  174  A    between atoms: _451  and  _453
REMARK  175  A    between atoms: _453  and  _454
REMARK  176  A    between atoms: _453  and  _456
REMARK  177  A    between atoms: _456  and  _457
REMARK  178  A    between atoms: _457  and  _458
REMARK  179  A    between atoms: _458  and  _459
REMARK  180  A    between atoms: _459  and  _460
REMARK  181  A    between atoms: _464  and  _466
REMARK  182  A    between atoms: _466  and  _467
REMARK  183  A    between atoms: _466  and  _469
REMARK  184  A    between atoms: _469  and  _470
REMARK  185  A    between atoms: _475  and  _477
REMARK  186  A    between atoms: _477  and  _478
REMARK  187  A    between atoms: _480  and  _482
REMARK  188  A    between atoms: _482  and  _483
REMARK  189  A    between atoms: _482  and  _485
REMARK  190  A    between atoms: _485  and  _486
REMARK  191  A    between atoms: _486  and  _487
REMARK  192  A    between atoms: _487  and  _488
REMARK  193  A    between atoms: _488  and  _489
REMARK  194  A    between atoms: _493  and  _495
REMARK  195  A    between atoms: _495  and  _496
REMARK  196  A    between atoms: _495  and  _498
REMARK  197  A    between atoms: _498  and  _499
REMARK  198  A    between atoms: _499  and  _500
REMARK  199  A    between atoms: _500  and  _501
REMARK  200  A    between atoms: _510  and  _512
REMARK  201  A    between atoms: _512  and  _513
REMARK  202  A    between atoms: _512  and  _515
REMARK  203  A    between atoms: _515  and  _516
REMARK  204  A    between atoms: _521  and  _522
REMARK  205  A    between atoms: _524  and  _526
REMARK  206  A    between atoms: _526  and  _527
REMARK  207  A    between atoms: _526  and  _529
REMARK  208  A    between atoms: _529  and  _530
REMARK  209  A    between atoms: _530  and  _531
REMARK  210  A    between atoms: _531  and  _532
REMARK  211  A    between atoms: _532  and  _533
REMARK  212  A    between atoms: _537  and  _539
REMARK  213  A    between atoms: _539  and  _540
REMARK  214  A    between atoms: _539  and  _542
REMARK  215  A    between atoms: _542  and  _543
REMARK  216  A    between atoms: _545  and  _547
REMARK  217  A    between atoms: _547  and  _548
REMARK  218  A    between atoms: _547  and  _550
REMARK  219  A    between atoms: _550  and  _551
REMARK  220  A    between atoms: _554  and  _556
REMARK  221  A    between atoms: _556  and  _557
REMARK  222  A    between atoms: _556  and  _559
REMARK  223  A    between atoms: _559  and  _560
REMARK  224  A    between atoms: _560  and  _561
REMARK  225  A    between atoms: _564  and  _566
REMARK  226  A    between atoms: _566  and  _567
REMARK  227  A    between atoms: _570  and  _572
REMARK  228  A    between atoms: _572  and  _573
REMARK  229  A    between atoms: _572  and  _575
REMARK  230  A    between atoms: _575  and  _576
REMARK  231  A    between atoms: _578  and  _580
REMARK  232  A    between atoms: _580  and  _581
REMARK  233  A    between atoms: _583  and  _585
REMARK  234  A    between atoms: _585  and  _586
REMARK  235  A    between atoms: _585  and  _588
REMARK  236  A    between atoms: _588  and  _589
REMARK  237  A    between atoms: _592  and  _594
REMARK  238  A    between atoms: _594  and  _595
REMARK  239  A    between atoms: _597  and  _599
REMARK  240  A    between atoms: _599  and  _600
REMARK  241  A    between atoms: _599  and  _602
REMARK  242  A    between atoms: _602  and  _603
REMARK  243  A    between atoms: _608  and  _610
REMARK  244  A    between atoms: _610  and  _611
REMARK  245  A    between atoms: _610  and  _613
REMARK  246  A    between atoms: _613  and  _614
REMARK  247  A    between atoms: _614  and  _615
REMARK  248  A    between atoms: _622  and  _623
REMARK  249  A    between atoms: _623  and  _639
REMARK  250  A    between atoms: _624  and  _626
REMARK  251  A    between atoms: _626  and  _627
REMARK  252  A    between atoms: _627  and  _628
REMARK  253  A    between atoms: _632  and  _634
REMARK  254  A    between atoms: _634  and  _635
REMARK  255  A    between atoms: _634  and  _642
REMARK  256  A    between atoms: _635  and  _636
REMARK  257  A    between atoms: _636  and  _637
REMARK  258  A    between atoms: _637  and  _638
REMARK  259  A    between atoms: _638  and  _639
REMARK  260  A    between atoms: _644  and  _646
REMARK  261  A    between atoms: _646  and  _647
REMARK  262  A    between atoms: _646  and  _649
REMARK  263  A    between atoms: _649  and  _650
REMARK  264  A    between atoms: _653  and  _655
REMARK  265  A    between atoms: _655  and  _656
REMARK  266  A    between atoms: _658  and  _660
REMARK  267  A    between atoms: _660  and  _661
REMARK  268  A    between atoms: _664  and  _666
REMARK  269  A    between atoms: _666  and  _667
REMARK  270  A    between atoms: _666  and  _669
REMARK  271  A    between atoms: _669  and  _670
REMARK  272  A    between atoms: _675  and  _676
REMARK                            x       y       z     vdW  Elec       q    Type
REMARK                         _______ _______ _______ _____ _____    ______ ____
ROOT
ATOM      1  NE  ARG A   1      39.577  25.825  40.388  0.00  0.00    -0.265 N 
ATOM      2  HE  ARG A   1      40.478  25.596  39.921  0.00  0.00    +0.259 HD
ATOM      3  CZ  ARG A   1      38.460  25.401  39.804  0.00  0.00    +0.342 C 
ATOM      4  NH2 ARG A   1      37.278  25.651  40.344  0.00  0.00    -0.292 N 
ATOM      5 HH21 ARG A   1      37.216  26.184  41.235  0.00  0.00    +0.255 HD
ATOM      6 HH22 ARG A   1      36.412  25.314  39.878  0.00  0.00    +0.255 HD
ATOM      7  NH1 ARG A   1      38.532  24.727  38.662  0.00  0.00    -0.292 N 
ATOM      8 HH11 ARG A   1      39.458  24.534  38.230  0.00  0.00    +0.255 HD
ATOM      9 HH12 ARG A   1      37.662  24.392  38.200  0.00  0.00    +0.255 HD
ENDROOT
BRANCH   1  10
ATOM     10  CD  ARG A   1      39.639  26.588  41.635  0.00  0.00    +0.174 C 
BRANCH  10  11
ATOM     11  CG  ARG A   1      40.978  27.313  41.729  0.00  0.00    +0.045 C 
BRANCH  11  12
ATOM     12  CB  ARG A   1      41.032  28.319  42.878  0.00  0.00    +0.029 C 
BRANCH  12  13
ATOM     13  CA  ARG A   1      41.049  27.700  44.278  0.00  0.00    +0.133 C 
BRANCH  13  14
ATOM     14  N   ARG A   1      41.366  28.707  45.291  0.00  0.00    -0.239 NA
ATOM     15  H   ARG A   1      41.698  29.648  44.996  0.00  0.00    +0.142 HD
ENDBRANCH  13  14
BRANCH  13  16
ATOM     16  C   ARG A   1      41.996  26.496  44.351  0.00  0.00    +0.224 C 
ATOM     17  O   ARG A   1      41.567  25.351  44.202  0.00  0.00    -0.287 OA
ENDBRANCH  13  16
ENDBRANCH  12  13
ENDBRANCH  11  12
ENDBRANCH  10  11
ENDBRANCH   1  10
TORSDOF 6
REMARK  Name = ../refined-set-2016/3l7a/3l7a_pocket.pdb
REMARK  272 active torsions:
REMARK  status: ('A' for Active; 'I' for Inactive)
REMARK    1  A    between atoms: _1  and  _3
REMARK    2  A    between atoms: _3  and  _4
REMARK    3  A    between atoms: _3  and  _6
REMARK    4  A    between atoms: _6  and  _7
REMARK    5  A    between atoms: _12  and  _13
REMARK    6  A    between atoms: _15  and  _17
REMARK    7  A    between atoms: _17  and  _18
REMARK    8  A    between atoms: _17  and  _20
REMARK    9  A    between atoms: _20  and  _21
REMARK   10  A    between atoms: _24  and  _26
REMARK   11  A    between atoms: _26  and  _27
REMARK   12  A    between atoms: _26  and  _29
REMARK   13  A    between atoms: _29  and  _30
REMARK   14  A    between atoms: _30  and  _31
REMARK   15  A    between atoms: _34  and  _36
REMARK   16  A    between atoms: _36  and  _37
REMARK   17  A    between atoms: _36  and  _39
REMARK   18  A    between atoms: _39  and  _40
REMARK   19  A    between atoms: _45  and  _46
REMARK   20  A    between atoms: _48  and  _50
REMARK   21  A    between atoms: _50  and  _51
REMARK   22  A    between atoms: _50  and  _53
REMARK   23  A    between atoms: _53  and  _54
REMARK   24  A    between atoms: _59  and  _61
REMARK   25  A    between atoms: _61  and  _62
REMARK   26  A    between atoms: _64  and  _66
REMARK   27  A    between atoms: _66  and  _67
REMARK   28  A    between atoms: _69  and  _71
REMARK   29  A    between atoms: _71  and  _72
REMARK   30  A    between atoms: _71  and  _74
REMARK   31  A    between atoms: _74  and  _75
REMARK   32  A    between atoms: _78  and  _80
REMARK   33  A    between atoms: _80  and  _81
REMARK   34  A    between atoms: _83  and  _85
REMARK   35  A    between atoms: _85  and  _86
REMARK   36  A    between atoms: _85  and  _88
REMARK   37  A    between atoms: _88  and  _89
REMARK   38  A    between atoms: _89  and  _90
REMARK   39  A    between atoms: _90  and  _91
REMARK   40  A    between atoms: _100  and  _102
REMARK   41  A    between atoms: _102  and  _103
REMARK   42  A    between atoms: _102  and  _105
REMARK   43  A    between atoms: _105  and  _106
REMARK   44  A    between atoms: _109  and  _111
REMARK   45  A    between atoms: _111  and  _112
REMARK   46  A    between atoms: _115  and  _117
REMARK   47  A    between atoms: _117  and  _118
REMARK   48  A    between atoms: _117  and  _120
REMARK   49  A    between atoms: _120  and  _121
REMARK   50  A    between atoms: _127  and  _129
REMARK   51  A    between atoms: _129  and  _130
REMARK   52  A    between atoms: _129  and  _132
REMARK   53  A    between atoms: _132  and  _133
REMARK   54  A    between atoms: _138  and  _139
REMARK   55  A    between atoms: _142  and  _143
REMARK   56  A    between atoms: _148  and  _150
REMARK   57  A    between atoms: _150  and  _151
REMARK   58  A    between atoms: _150  and  _153
REMARK   59  A    between atoms: _153  and  _154
REMARK   60  A    between atoms: _159  and  _161
REMARK   61  A    between atoms: _161  and  _162
REMARK   62  A    between atoms: _161  and  _164
REMARK   63  A    between atoms: _164  and  _165
REMARK   64  A    between atoms: _168  and  _170
REMARK   65  A    between atoms: _170  and  _171
REMARK   66  A    between atoms: _170  and  _173
REMARK   67  A    between atoms: _173  and  _174
REMARK   68  A    between atoms: _179  and  _181
REMARK   69  A    between atoms: _181  and  _182
REMARK   70  A    between atoms: _181  and  _184
REMARK   71  A    between atoms: _184  and  _185
REMARK   72  A    between atoms: _191  and  _193
REMARK   73  A    between atoms: _193  and  _194
REMARK   74  A    between atoms: _193  and  _196
REMARK   75  A    between atoms: _196  and  _197
REMARK   76  A    between atoms: _203  and  _205
REMARK   77  A    between atoms: _205  and  _206
REMARK   78  A    between atoms: _205  and  _208
REMARK   79  A    between atoms: _208  and  _209
REMARK   80  A    between atoms: _209  and  _210
REMARK   81  A    between atoms: _213  and  _215
REMARK   82  A    between atoms: _215  and  _216
REMARK   83  A    between atoms: _218  and  _220
REMARK   84  A    between atoms: _220  and  _221
REMARK   85  A    between atoms: _220  and  _223
REMARK   86  A    between atoms: _223  and  _224
REMARK   87  A    between atoms: _224  and  _225
REMARK   88  A    between atoms: _225  and  _226
REMARK   89  A    between atoms: _235  and  _237
REMARK   90  A    between atoms: _237  and  _238
REMARK   91  A    between atoms: _237  and  _240
REMARK   92  A    between atoms: _240  and  _241
REMARK   93  A    between atoms: _241  and  _242
REMARK   94  A    between atoms: _245  and  _247
REMARK   95  A    between atoms: _247  and  _248
REMARK   96  A    between atoms: _247  and  _250
REMARK   97  A    between atoms: _250  and  _251
REMARK   98  A    between atoms: _256  and  _258
REMARK   99  A    between atoms: _258  and  _259
REMARK  100  A    between atoms: _258  and  _261
REMARK  101  A    between atoms: _261  and  _262
REMARK  102  A    between atoms: _265  and  _267
REMARK  103  A    between atoms: _267  and  _268
REMARK  104  A    between atoms: _267  and  _270
REMARK  105  A    between atoms: _270  and  _271
REMARK  106  A    between atoms: _274  and  _276
REMARK  107  A    between atoms: _276  and  _277
REMARK  108  A    between atoms: _276  and  _279
REMARK  109  A    between atoms: _279  and  _280
REMARK  110  A    between atoms: _285  and  _287
REMARK  111  A    between atoms: _287  and  _288
REMARK  112  A    between atoms: _287  and  _290
REMARK  113  A    between atoms: _290  and  _291
REMARK  114  A    between atoms: _294  and  _296
REMARK  115  A    between atoms: _296  and  _297
REMARK  116  A    between atoms: _296  and  _299
REMARK  117  A    between atoms: _299  and  _300
REMARK  118  A    between atoms: _305  and  _307
REMARK  119  A    between atoms: _307  and  _308
REMARK  120  A    between atoms: _307  and  _310
REMARK  121  A    between atoms: _310  and  _311
REMARK  122  A    between atoms: _316  and  _318
REMARK  123  A    between atoms: _318  and  _319
REMARK  124  A    between atoms: _318  and  _321
REMARK  125  A    between atoms: _321  and  _322
REMARK  126  A    between atoms: _325  and  _327
REMARK  127  A    between atoms: _327  and  _328
REMARK  128  A    between atoms: _327  and  _330
REMARK  129  A    between atoms: _333  and  _335
REMARK  130  A    between atoms: _335  and  _336
REMARK  131  A    between atoms: _335  and  _338
REMARK  132  A    between atoms: _338  and  _339
REMARK  133  A    between atoms: _342  and  _344
REMARK  134  A    between atoms: _344  and  _345
REMARK  135  A    between atoms: _344  and  _347
REMARK  136  A    between atoms: _347  and  _348
REMARK  137  A    between atoms: _348  and  _349
REMARK  138  A    between atoms: _352  and  _354
REMARK  139  A    between atoms: _354  and  _355
REMARK  140  A    between atoms: _358  and  _360
REMARK  141  A    between atoms: _360  and  _361
REMARK  142  A    between atoms: _360  and  _363
REMARK  143  A    between atoms: _363  and  _364
REMARK  144  A    between atoms: _367  and  _369
REMARK  145  A    between atoms: _369  and  _370
REMARK  146  A    between atoms: _369  and  _372
REMARK  147  A    between atoms: _372  and  _373
REMARK  148  A    between atoms: _373  and  _374
REMARK  149  A    between atoms: _377  and  _379
REMARK  150  A    between atoms: _379  and  _380
REMARK  151  A    between atoms: _379  and  _382
REMARK  152  A    between atoms: _382  and  _383
REMARK  153  A    between atoms: _383  and  _384
REMARK  154  A    between atoms: _384  and  _385
REMARK  155  A    between atoms: _394  and  _396
REMARK  156  A    between atoms: _396  and  _397
REMARK  157  A    between atoms: _396  and  _399
REMARK  158  A    between atoms: _399  and  _400
REMARK  159  A    between atoms: _410  and  _412
REMARK  160  A    between atoms: _412  and  _413
REMARK  161  A    between atoms: _412  and  _415
REMARK  162  A    between atoms: _415  and  _416
REMARK  163  A    between atoms: _421  and  _423
REMARK  164  A    between atoms: _423  and  _424
REMARK  165  A    between atoms: _426  and  _428
REMARK  166  A    between atoms: _428  and  _429
REMARK  167  A    between atoms: _428  and  _431
REMARK  168  A    between atoms: _434  and  _436
REMARK  169  A    between atoms: _436  and  _437
REMARK  170  A    between atoms: _440  and  _442
REMARK  171  A    between atoms: _442  and  _443
REMARK  172  A    between atoms: _442  and  _445
REMARK  173  A    between atoms: _445  and  _446
REMARK  174  A    between atoms: _451  and  _453
REMARK  175  A    between atoms: _453  and  _454
REMARK  176  A    between atoms: _453  and  _456
REMARK  177  A    between atoms: _456  and  _457
REMARK  178  A    between atoms: _457  and  _458
REMARK  179  A    between atoms: _458  and  _459
REMARK  180  A    between atoms: _459  and  _460
REMARK  181  A    between atoms: _464  and  _466
REMARK  182  A    between atoms: _466  and  _467
REMARK  183  A    between atoms: _466  and  _469
REMARK  184  A    between atoms: _469  and  _470
REMARK  185  A    between atoms: _475  and  _477
REMARK  186  A    between atoms: _477  and  _478
REMARK  187  A    between atoms: _480  and  _482
REMARK  188  A    between atoms: _482  and  _483
REMARK  189  A    between atoms: _482  and  _485
REMARK  190  A    between atoms: _485  and  _486
REMARK  191  A    between atoms: _486  and  _487
REMARK  192  A    between atoms: _487  and  _488
REMARK  193  A    between atoms: _488  and  _489
REMARK  194  A    between atoms: _493  and  _495
REMARK  195  A    between atoms: _495  and  _496
REMARK  196  A    between atoms: _495  and  _498
REMARK  197  A    between atoms: _498  and  _499
REMARK  198  A    between atoms: _499  and  _500
REMARK  199  A    between atoms: _500  and  _501
REMARK  200  A    between atoms: _510  and  _512
REMARK  201  A    between atoms: _512  and  _513
REMARK  202  A    between atoms: _512  and  _515
REMARK  203  A    between atoms: _515  and  _516
REMARK  204  A    between atoms: _521  and  _522
REMARK  205  A    between atoms: _524  and  _526
REMARK  206  A    between atoms: _526  and  _527
REMARK  207  A    between atoms: _526  and  _529
REMARK  208  A    between atoms: _529  and  _530
REMARK  209  A    between atoms: _530  and  _531
REMARK  210  A    between atoms: _531  and  _532
REMARK  211  A    between atoms: _532  and  _533
REMARK  212  A    between atoms: _537  and  _539
REMARK  213  A    between atoms: _539  and  _540
REMARK  214  A    between atoms: _539  and  _542
REMARK  215  A    between atoms: _542  and  _543
REMARK  216  A    between atoms: _545  and  _547
REMARK  217  A    between atoms: _547  and  _548
REMARK  218  A    between atoms: _547  and  _550
REMARK  219  A    between atoms: _550  and  _551
REMARK  220  A    between atoms: _554  and  _556
REMARK  221  A    between atoms: _556  and  _557
REMARK  222  A    between atoms: _556  and  _559
REMARK  223  A    between atoms: _559  and  _560
REMARK  224  A    between atoms: _560  and  _561
REMARK  225  A    between atoms: _564  and  _566
REMARK  226  A    between atoms: _566  and  _567
REMARK  227  A    between atoms: _570  and  _572
REMARK  228  A    between atoms: _572  and  _573
REMARK  229  A    between atoms: _572  and  _575
REMARK  230  A    between atoms: _575  and  _576
REMARK  231  A    between atoms: _578  and  _580
REMARK  232  A    between atoms: _580  and  _581
REMARK  233  A    between atoms: _583  and  _585
REMARK  234  A    between atoms: _585  and  _586
REMARK  235  A    between atoms: _585  and  _588
REMARK  236  A    between atoms: _588  and  _589
REMARK  237  A    between atoms: _592  and  _594
REMARK  238  A    between atoms: _594  and  _595
REMARK  239  A    between atoms: _597  and  _599
REMARK  240  A    between atoms: _599  and  _600
REMARK  241  A    between atoms: _599  and  _602
REMARK  242  A    between atoms: _602  and  _603
REMARK  243  A    between atoms: _608  and  _610
REMARK  244  A    between atoms: _610  and  _611
REMARK  245  A    between atoms: _610  and  _613
REMARK  246  A    between atoms: _613  and  _614
REMARK  247  A    between atoms: _614  and  _615
REMARK  248  A    between atoms: _622  and  _623
REMARK  249  A    between atoms: _623  and  _639
REMARK  250  A    between atoms: _624  and  _626
REMARK  251  A    between atoms: _626  and  _627
REMARK  252  A    between atoms: _627  and  _628
REMARK  253  A    between atoms: _632  and  _634
REMARK  254  A    between atoms: _634  and  _635
REMARK  255  A    between atoms: _634  and  _642
REMARK  256  A    between atoms: _635  and  _636
REMARK  257  A    between atoms: _636  and  _637
REMARK  258  A    between atoms: _637  and  _638
REMARK  259  A    between atoms: _638  and  _639
REMARK  260  A    between atoms: _644  and  _646
REMARK  261  A    between atoms: _646  and  _647
REMARK  262  A    between atoms: _646  and  _649
REMARK  263  A    between atoms: _649  and  _650
REMARK  264  A    between atoms: _653  and  _655
REMARK  265  A    between atoms: _655  and  _656
REMARK  266  A    between atoms: _658  and  _660
REMARK  267  A    between atoms: _660  and  _661
REMARK  268  A    between atoms: _664  and  _666
REMARK  269  A    between atoms: _666  and  _667
REMARK  270  A    between atoms: _666  and  _669
REMARK  271  A    between atoms: _669  and  _670
REMARK  272  A    between atoms: _675  and  _676
REMARK                            x       y       z     vdW  Elec       q    Type
REMARK                         _______ _______ _______ _____ _____    ______ ____
ROOT
ATOM      1  CA  GLU A   1      41.479  21.337  44.227  0.00  0.00    +0.134 C 
ENDROOT
BRANCH   1   2
ATOM      2  N   GLU A   1      41.007  22.445  45.057  0.00  0.00    -0.239 NA
ATOM      3  H   GLU A   1      41.396  23.396  44.898  0.00  0.00    +0.142 HD
ENDBRANCH   1   2
BRANCH   1   4
ATOM      4  C   GLU A   1      42.204  20.265  45.044  0.00  0.00    +0.224 C 
ATOM      5  O   GLU A   1      42.012  19.069  44.817  0.00  0.00    -0.287 OA
ENDBRANCH   1   4
BRANCH   1   6
ATOM      6  CB  GLU A   1      42.368  21.866  43.094  0.00  0.00    +0.037 C 
BRANCH   6   7
ATOM      7  CG  GLU A   1      41.605  22.715  42.080  0.00  0.00    +0.116 C 
BRANCH   7   8
ATOM      8  CD  GLU A   1      42.467  23.204  40.926  0.00  0.00    +0.365 C 
ATOM      9  OE2 GLU A   1      43.712  23.069  40.992  0.00  0.00    -0.246 OA
ATOM     10  OE1 GLU A   1      41.889  23.725  39.944  0.00  0.00    -0.246 OA
ENDBRANCH   7   8
ENDBRANCH   6   7
ENDBRANCH   1   6
TORSDOF 5
REMARK  Name = ../refined-set-2016/3l7a/3l7a_pocket.pdb
REMARK  272 active torsions:
REMARK  status: ('A' for Active; 'I' for Inactive)
REMARK    1  A    between atoms: _1  and  _3
REMARK    2  A    between atoms: _3  and  _4
REMARK    3  A    between atoms: _3  and  _6
REMARK    4  A    between atoms: _6  and  _7
REMARK    5  A    between atoms: _12  and  _13
REMARK    6  A    between atoms: _15  and  _17
REMARK    7  A    between atoms: _17  and  _18
REMARK    8  A    between atoms: _17  and  _20
REMARK    9  A    between atoms: _20  and  _21
REMARK   10  A    between atoms: _24  and  _26
REMARK   11  A    between atoms: _26  and  _27
REMARK   12  A    between atoms: _26  and  _29
REMARK   13  A    between atoms: _29  and  _30
REMARK   14  A    between atoms: _30  and  _31
REMARK   15  A    between atoms: _34  and  _36
REMARK   16  A    between atoms: _36  and  _37
REMARK   17  A    between atoms: _36  and  _39
REMARK   18  A    between atoms: _39  and  _40
REMARK   19  A    between atoms: _45  and  _46
REMARK   20  A    between atoms: _48  and  _50
REMARK   21  A    between atoms: _50  and  _51
REMARK   22  A    between atoms: _50  and  _53
REMARK   23  A    between atoms: _53  and  _54
REMARK   24  A    between atoms: _59  and  _61
REMARK   25  A    between atoms: _61  and  _62
REMARK   26  A    between atoms: _64  and  _66
REMARK   27  A    between atoms: _66  and  _67
REMARK   28  A    between atoms: _69  and  _71
REMARK   29  A    between atoms: _71  and  _72
REMARK   30  A    between atoms: _71  and  _74
REMARK   31  A    between atoms: _74  and  _75
REMARK   32  A    between atoms: _78  and  _80
REMARK   33  A    between atoms: _80  and  _81
REMARK   34  A    between atoms: _83  and  _85
REMARK   35  A    between atoms: _85  and  _86
REMARK   36  A    between atoms: _85  and  _88
REMARK   37  A    between atoms: _88  and  _89
REMARK   38  A    between atoms: _89  and  _90
REMARK   39  A    between atoms: _90  and  _91
REMARK   40  A    between atoms: _100  and  _102
REMARK   41  A    between atoms: _102  and  _103
REMARK   42  A    between atoms: _102  and  _105
REMARK   43  A    between atoms: _105  and  _106
REMARK   44  A    between atoms: _109  and  _111
REMARK   45  A    between atoms: _111  and  _112
REMARK   46  A    between atoms: _115  and  _117
REMARK   47  A    between atoms: _117  and  _118
REMARK   48  A    between atoms: _117  and  _120
REMARK   49  A    between atoms: _120  and  _121
REMARK   50  A    between atoms: _127  and  _129
REMARK   51  A    between atoms: _129  and  _130
REMARK   52  A    between atoms: _129  and  _132
REMARK   53  A    between atoms: _132  and  _133
REMARK   54  A    between atoms: _138  and  _139
REMARK   55  A    between atoms: _142  and  _143
REMARK   56  A    between atoms: _148  and  _150
REMARK   57  A    between atoms: _150  and  _151
REMARK   58  A    between atoms: _150  and  _153
REMARK   59  A    between atoms: _153  and  _154
REMARK   60  A    between atoms: _159  and  _161
REMARK   61  A    between atoms: _161  and  _162
REMARK   62  A    between atoms: _161  and  _164
REMARK   63  A    between atoms: _164  and  _165
REMARK   64  A    between atoms: _168  and  _170
REMARK   65  A    between atoms: _170  and  _171
REMARK   66  A    between atoms: _170  and  _173
REMARK   67  A    between atoms: _173  and  _174
REMARK   68  A    between atoms: _179  and  _181
REMARK   69  A    between atoms: _181  and  _182
REMARK   70  A    between atoms: _181  and  _184
REMARK   71  A    between atoms: _184  and  _185
REMARK   72  A    between atoms: _191  and  _193
REMARK   73  A    between atoms: _193  and  _194
REMARK   74  A    between atoms: _193  and  _196
REMARK   75  A    between atoms: _196  and  _197
REMARK   76  A    between atoms: _203  and  _205
REMARK   77  A    between atoms: _205  and  _206
REMARK   78  A    between atoms: _205  and  _208
REMARK   79  A    between atoms: _208  and  _209
REMARK   80  A    between atoms: _209  and  _210
REMARK   81  A    between atoms: _213  and  _215
REMARK   82  A    between atoms: _215  and  _216
REMARK   83  A    between atoms: _218  and  _220
REMARK   84  A    between atoms: _220  and  _221
REMARK   85  A    between atoms: _220  and  _223
REMARK   86  A    between atoms: _223  and  _224
REMARK   87  A    between atoms: _224  and  _225
REMARK   88  A    between atoms: _225  and  _226
REMARK   89  A    between atoms: _235  and  _237
REMARK   90  A    between atoms: _237  and  _238
REMARK   91  A    between atoms: _237  and  _240
REMARK   92  A    between atoms: _240  and  _241
REMARK   93  A    between atoms: _241  and  _242
REMARK   94  A    between atoms: _245  and  _247
REMARK   95  A    between atoms: _247  and  _248
REMARK   96  A    between atoms: _247  and  _250
REMARK   97  A    between atoms: _250  and  _251
REMARK   98  A    between atoms: _256  and  _258
REMARK   99  A    between atoms: _258  and  _259
REMARK  100  A    between atoms: _258  and  _261
REMARK  101  A    between atoms: _261  and  _262
REMARK  102  A    between atoms: _265  and  _267
REMARK  103  A    between atoms: _267  and  _268
REMARK  104  A    between atoms: _267  and  _270
REMARK  105  A    between atoms: _270  and  _271
REMARK  106  A    between atoms: _274  and  _276
REMARK  107  A    between atoms: _276  and  _277
REMARK  108  A    between atoms: _276  and  _279
REMARK  109  A    between atoms: _279  and  _280
REMARK  110  A    between atoms: _285  and  _287
REMARK  111  A    between atoms: _287  and  _288
REMARK  112  A    between atoms: _287  and  _290
REMARK  113  A    between atoms: _290  and  _291
REMARK  114  A    between atoms: _294  and  _296
REMARK  115  A    between atoms: _296  and  _297
REMARK  116  A    between atoms: _296  and  _299
REMARK  117  A    between atoms: _299  and  _300
REMARK  118  A    between atoms: _305  and  _307
REMARK  119  A    between atoms: _307  and  _308
REMARK  120  A    between atoms: _307  and  _310
REMARK  121  A    between atoms: _310  and  _311
REMARK  122  A    between atoms: _316  and  _318
REMARK  123  A    between atoms: _318  and  _319
REMARK  124  A    between atoms: _318  and  _321
REMARK  125  A    between atoms: _321  and  _322
REMARK  126  A    between atoms: _325  and  _327
REMARK  127  A    between atoms: _327  and  _328
REMARK  128  A    between atoms: _327  and  _330
REMARK  129  A    between atoms: _333  and  _335
REMARK  130  A    between atoms: _335  and  _336
REMARK  131  A    between atoms: _335  and  _338
REMARK  132  A    between atoms: _338  and  _339
REMARK  133  A    between atoms: _342  and  _344
REMARK  134  A    between atoms: _344  and  _345
REMARK  135  A    between atoms: _344  and  _347
REMARK  136  A    between atoms: _347  and  _348
REMARK  137  A    between atoms: _348  and  _349
REMARK  138  A    between atoms: _352  and  _354
REMARK  139  A    between atoms: _354  and  _355
REMARK  140  A    between atoms: _358  and  _360
REMARK  141  A    between atoms: _360  and  _361
REMARK  142  A    between atoms: _360  and  _363
REMARK  143  A    between atoms: _363  and  _364
REMARK  144  A    between atoms: _367  and  _369
REMARK  145  A    between atoms: _369  and  _370
REMARK  146  A    between atoms: _369  and  _372
REMARK  147  A    between atoms: _372  and  _373
REMARK  148  A    between atoms: _373  and  _374
REMARK  149  A    between atoms: _377  and  _379
REMARK  150  A    between atoms: _379  and  _380
REMARK  151  A    between atoms: _379  and  _382
REMARK  152  A    between atoms: _382  and  _383
REMARK  153  A    between atoms: _383  and  _384
REMARK  154  A    between atoms: _384  and  _385
REMARK  155  A    between atoms: _394  and  _396
REMARK  156  A    between atoms: _396  and  _397
REMARK  157  A    between atoms: _396  and  _399
REMARK  158  A    between atoms: _399  and  _400
REMARK  159  A    between atoms: _410  and  _412
REMARK  160  A    between atoms: _412  and  _413
REMARK  161  A    between atoms: _412  and  _415
REMARK  162  A    between atoms: _415  and  _416
REMARK  163  A    between atoms: _421  and  _423
REMARK  164  A    between atoms: _423  and  _424
REMARK  165  A    between atoms: _426  and  _428
REMARK  166  A    between atoms: _428  and  _429
REMARK  167  A    between atoms: _428  and  _431
REMARK  168  A    between atoms: _434  and  _436
REMARK  169  A    between atoms: _436  and  _437
REMARK  170  A    between atoms: _440  and  _442
REMARK  171  A    between atoms: _442  and  _443
REMARK  172  A    between atoms: _442  and  _445
REMARK  173  A    between atoms: _445  and  _446
REMARK  174  A    between atoms: _451  and  _453
REMARK  175  A    between atoms: _453  and  _454
REMARK  176  A    between atoms: _453  and  _456
REMARK  177  A    between atoms: _456  and  _457
REMARK  178  A    between atoms: _457  and  _458
REMARK  179  A    between atoms: _458  and  _459
REMARK  180  A    between atoms: _459  and  _460
REMARK  181  A    between atoms: _464  and  _466
REMARK  182  A    between atoms: _466  and  _467
REMARK  183  A    between atoms: _466  and  _469
REMARK  184  A    between atoms: _469  and  _470
REMARK  185  A    between atoms: _475  and  _477
REMARK  186  A    between atoms: _477  and  _478
REMARK  187  A    between atoms: _480  and  _482
REMARK  188  A    between atoms: _482  and  _483
REMARK  189  A    between atoms: _482  and  _485
REMARK  190  A    between atoms: _485  and  _486
REMARK  191  A    between atoms: _486  and  _487
REMARK  192  A    between atoms: _487  and  _488
REMARK  193  A    between atoms: _488  and  _489
REMARK  194  A    between atoms: _493  and  _495
REMARK  195  A    between atoms: _495  and  _496
REMARK  196  A    between atoms: _495  and  _498
REMARK  197  A    between atoms: _498  and  _499
REMARK  198  A    between atoms: _499  and  _500
REMARK  199  A    between atoms: _500  and  _501
REMARK  200  A    between atoms: _510  and  _512
REMARK  201  A    between atoms: _512  and  _513
REMARK  202  A    between atoms: _512  and  _515
REMARK  203  A    between atoms: _515  and  _516
REMARK  204  A    between atoms: _521  and  _522
REMARK  205  A    between atoms: _524  and  _526
REMARK  206  A    between atoms: _526  and  _527
REMARK  207  A    between atoms: _526  and  _529
REMARK  208  A    between atoms: _529  and  _530
REMARK  209  A    between atoms: _530  and  _531
REMARK  210  A    between atoms: _531  and  _532
REMARK  211  A    between atoms: _532  and  _533
REMARK  212  A    between atoms: _537  and  _539
REMARK  213  A    between atoms: _539  and  _540
REMARK  214  A    between atoms: _539  and  _542
REMARK  215  A    between atoms: _542  and  _543
REMARK  216  A    between atoms: _545  and  _547
REMARK  217  A    between atoms: _547  and  _548
REMARK  218  A    between atoms: _547  and  _550
REMARK  219  A    between atoms: _550  and  _551
REMARK  220  A    between atoms: _554  and  _556
REMARK  221  A    between atoms: _556  and  _557
REMARK  222  A    between atoms: _556  and  _559
REMARK  223  A    between atoms: _559  and  _560
REMARK  224  A    between atoms: _560  and  _561
REMARK  225  A    between atoms: _564  and  _566
REMARK  226  A    between atoms: _566  and  _567
REMARK  227  A    between atoms: _570  and  _572
REMARK  228  A    between atoms: _572  and  _573
REMARK  229  A    between atoms: _572  and  _575
REMARK  230  A    between atoms: _575  and  _576
REMARK  231  A    between atoms: _578  and  _580
REMARK  232  A    between atoms: _580  and  _581
REMARK  233  A    between atoms: _583  and  _585
REMARK  234  A    between atoms: _585  and  _586
REMARK  235  A    between atoms: _585  and  _588
REMARK  236  A    between atoms: _588  and  _589
REMARK  237  A    between atoms: _592  and  _594
REMARK  238  A    between atoms: _594  and  _595
REMARK  239  A    between atoms: _597  and  _599
REMARK  240  A    between atoms: _599  and  _600
REMARK  241  A    between atoms: _599  and  _602
REMARK  242  A    between atoms: _602  and  _603
REMARK  243  A    between atoms: _608  and  _610
REMARK  244  A    between atoms: _610  and  _611
REMARK  245  A    between atoms: _610  and  _613
REMARK  246  A    between atoms: _613  and  _614
REMARK  247  A    between atoms: _614  and  _615
REMARK  248  A    between atoms: _622  and  _623
REMARK  249  A    between atoms: _623  and  _639
REMARK  250  A    between atoms: _624  and  _626
REMARK  251  A    between atoms: _626  and  _627
REMARK  252  A    between atoms: _627  and  _628
REMARK  253  A    between atoms: _632  and  _634
REMARK  254  A    between atoms: _634  and  _635
REMARK  255  A    between atoms: _634  and  _642
REMARK  256  A    between atoms: _635  and  _636
REMARK  257  A    between atoms: _636  and  _637
REMARK  258  A    between atoms: _637  and  _638
REMARK  259  A    between atoms: _638  and  _639
REMARK  260  A    between atoms: _644  and  _646
REMARK  261  A    between atoms: _646  and  _647
REMARK  262  A    between atoms: _646  and  _649
REMARK  263  A    between atoms: _649  and  _650
REMARK  264  A    between atoms: _653  and  _655
REMARK  265  A    between atoms: _655  and  _656
REMARK  266  A    between atoms: _658  and  _660
REMARK  267  A    between atoms: _660  and  _661
REMARK  268  A    between atoms: _664  and  _666
REMARK  269  A    between atoms: _666  and  _667
REMARK  270  A    between atoms: _666  and  _669
REMARK  271  A    between atoms: _669  and  _670
REMARK  272  A    between atoms: _675  and  _676
REMARK                            x       y       z     vdW  Elec       q    Type
REMARK                         _______ _______ _______ _____ _____    ______ ____
ROOT
ATOM      1  C   ASP A   2      41.234  18.262  34.106  0.00  0.00    +0.241 C 
ATOM      2  O   ASP A   2      41.408  17.226  34.745  0.00  0.00    -0.273 OA
ATOM      3  N   THR A   3      42.048  19.313  34.215  0.00  0.00    -0.295 N 
ATOM      4  H   THR A   3      41.842  20.177  33.675  0.00  0.00    +0.150 HD
ENDROOT
BRANCH   1   5
ATOM      5  CA  ASP A   2      40.063  18.376  33.116  0.00  0.00    +0.160 C 
BRANCH   5   8
ATOM      6  C   ASN A   1      38.298  17.184  34.386  0.00  0.00    +0.239 C 
ATOM      7  O   ASN A   1      38.204  18.057  35.260  0.00  0.00    -0.274 OA
ATOM      8  N   ASP A   2      39.073  17.305  33.303  0.00  0.00    -0.297 N 
ATOM      9  H   ASP A   2      38.969  16.599  32.547  0.00  0.00    +0.150 HD
BRANCH   6  10
ATOM     10  CA  ASN A   1      37.555  15.846  34.516  0.00  0.00    +0.154 C 
BRANCH  10  11
ATOM     11  N   ASN A   1      38.349  14.950  35.354  0.00  0.00    -0.238 NA
ATOM     12  H   ASN A   1      38.120  14.879  36.366  0.00  0.00    +0.142 HD
ENDBRANCH  10  11
BRANCH  10  13
ATOM     13  CB  ASN A   1      36.144  16.021  35.115  0.00  0.00    +0.111 C 
BRANCH  13  14
ATOM     14  CG  ASN A   1      35.156  16.666  34.143  0.00  0.00    +0.221 C 
ATOM     15  ND2 ASN A   1      34.121  17.300  34.689  0.00  0.00    -0.329 N 
ATOM     16 HD21 ASN A   1      34.021  17.337  35.723  0.00  0.00    +0.145 HD
ATOM     17 HD22 ASN A   1      33.412  17.758  34.081  0.00  0.00    +0.145 HD
ATOM     18  OD1 ASN A   1      35.319  16.594  32.923  0.00  0.00    -0.275 OA
ENDBRANCH  13  14
ENDBRANCH  10  13
ENDBRANCH   6  10
ENDBRANCH   5   8
BRANCH   5  19
ATOM     19  CB  ASP A   2      39.421  19.773  33.132  0.00  0.00    +0.143 C 
BRANCH  19  20
ATOM     20  CG  ASP A   2      40.071  20.713  32.124  0.00  0.00    +0.367 C 
ATOM     21  OD2 ASP A   2      41.163  21.236  32.407  0.00  0.00    -0.246 OA
ATOM     22  OD1 ASP A   2      39.529  20.875  31.015  0.00  0.00    -0.246 OA
ENDBRANCH  19  20
ENDBRANCH   5  19
ENDBRANCH   1   5
BRANCH   3  23
ATOM     23  CA  THR A   3      43.226  19.270  35.082  0.00  0.00    +0.176 C 
BRANCH  23  24
ATOM     24  C   THR A   3      42.880  19.717  36.496  0.00  0.00    +0.243 C 
ATOM     25  O   THR A   3      43.740  19.725  37.373  0.00  0.00    -0.273 OA
ATOM     26  N   HIS A   4      41.620  20.093  36.727  0.00  0.00    -0.298 N 
ATOM     27  H   HIS A   4      40.903  20.019  35.977  0.00  0.00    +0.150 HD
BRANCH  26  28
ATOM     28  CA  HIS A   4      41.259  20.612  38.051  0.00  0.00    +0.143 C 
BRANCH  28  29
ATOM     29  C   HIS A   4      41.595  19.650  39.210  0.00  0.00    +0.227 C 
ATOM     30  O   HIS A   4      42.082  20.098  40.247  0.00  0.00    -0.286 OA
ENDBRANCH  28  29
BRANCH  28  31
ATOM     31  CB  HIS A   4      39.805  21.124  38.105  0.00  0.00    +0.075 C 
BRANCH  31  32
ATOM     32  CG  HIS A   4      39.423  21.988  36.938  0.00  0.00    +0.082 A 
ATOM     33  ND1 HIS A   4      38.122  22.100  36.494  0.00  0.00    -0.227 NA
ATOM     34  CE1 HIS A   4      38.084  22.917  35.455  0.00  0.00    +0.199 A 
ATOM     35  NE2 HIS A   4      39.314  23.326  35.198  0.00  0.00    -0.221 NA
ATOM     36  CD2 HIS A   4      40.171  22.755  36.107  0.00  0.00    +0.115 A 
ENDBRANCH  31  32
ENDBRANCH  28  31
ENDBRANCH  26  28
ENDBRANCH  23  24
BRANCH  23  37
ATOM     37  CB  THR A   3      44.369  20.169  34.557  0.00  0.00    +0.137 C 
ATOM     38  CG2 THR A   3      44.819  19.721  33.157  0.00  0.00    +0.034 C 
BRANCH  37  39
ATOM     39  OG1 THR A   3      43.910  21.521  34.501  0.00  0.00    -0.382 OA
ATOM     40  HG1 THR A   3      43.643  21.815  35.408  0.00  0.00    +0.210 HD
ENDBRANCH  37  39
ENDBRANCH  23  37
ENDBRANCH   3  23
TORSDOF 16
REMARK  Name = ../refined-set-2016/3l7a/3l7a_pocket.pdb
REMARK  272 active torsions:
REMARK  status: ('A' for Active; 'I' for Inactive)
REMARK    1  A    between atoms: _1  and  _3
REMARK    2  A    between atoms: _3  and  _4
REMARK    3  A    between atoms: _3  and  _6
REMARK    4  A    between atoms: _6  and  _7
REMARK    5  A    between atoms: _12  and  _13
REMARK    6  A    between atoms: _15  and  _17
REMARK    7  A    between atoms: _17  and  _18
REMARK    8  A    between atoms: _17  and  _20
REMARK    9  A    between atoms: _20  and  _21
REMARK   10  A    between atoms: _24  and  _26
REMARK   11  A    between atoms: _26  and  _27
REMARK   12  A    between atoms: _26  and  _29
REMARK   13  A    between atoms: _29  and  _30
REMARK   14  A    between atoms: _30  and  _31
REMARK   15  A    between atoms: _34  and  _36
REMARK   16  A    between atoms: _36  and  _37
REMARK   17  A    between atoms: _36  and  _39
REMARK   18  A    between atoms: _39  and  _40
REMARK   19  A    between atoms: _45  and  _46
REMARK   20  A    between atoms: _48  and  _50
REMARK   21  A    between atoms: _50  and  _51
REMARK   22  A    between atoms: _50  and  _53
REMARK   23  A    between atoms: _53  and  _54
REMARK   24  A    between atoms: _59  and  _61
REMARK   25  A    between atoms: _61  and  _62
REMARK   26  A    between atoms: _64  and  _66
REMARK   27  A    between atoms: _66  and  _67
REMARK   28  A    between atoms: _69  and  _71
REMARK   29  A    between atoms: _71  and  _72
REMARK   30  A    between atoms: _71  and  _74
REMARK   31  A    between atoms: _74  and  _75
REMARK   32  A    between atoms: _78  and  _80
REMARK   33  A    between atoms: _80  and  _81
REMARK   34  A    between atoms: _83  and  _85
REMARK   35  A    between atoms: _85  and  _86
REMARK   36  A    between atoms: _85  and  _88
REMARK   37  A    between atoms: _88  and  _89
REMARK   38  A    between atoms: _89  and  _90
REMARK   39  A    between atoms: _90  and  _91
REMARK   40  A    between atoms: _100  and  _102
REMARK   41  A    between atoms: _102  and  _103
REMARK   42  A    between atoms: _102  and  _105
REMARK   43  A    between atoms: _105  and  _106
REMARK   44  A    between atoms: _109  and  _111
REMARK   45  A    between atoms: _111  and  _112
REMARK   46  A    between atoms: _115  and  _117
REMARK   47  A    between atoms: _117  and  _118
REMARK   48  A    between atoms: _117  and  _120
REMARK   49  A    between atoms: _120  and  _121
REMARK   50  A    between atoms: _127  and  _129
REMARK   51  A    between atoms: _129  and  _130
REMARK   52  A    between atoms: _129  and  _132
REMARK   53  A    between atoms: _132  and  _133
REMARK   54  A    between atoms: _138  and  _139
REMARK   55  A    between atoms: _142  and  _143
REMARK   56  A    between atoms: _148  and  _150
REMARK   57  A    between atoms: _150  and  _151
REMARK   58  A    between atoms: _150  and  _153
REMARK   59  A    between atoms: _153  and  _154
REMARK   60  A    between atoms: _159  and  _161
REMARK   61  A    between atoms: _161  and  _162
REMARK   62  A    between atoms: _161  and  _164
REMARK   63  A    between atoms: _164  and  _165
REMARK   64  A    between atoms: _168  and  _170
REMARK   65  A    between atoms: _170  and  _171
REMARK   66  A    between atoms: _170  and  _173
REMARK   67  A    between atoms: _173  and  _174
REMARK   68  A    between atoms: _179  and  _181
REMARK   69  A    between atoms: _181  and  _182
REMARK   70  A    between atoms: _181  and  _184
REMARK   71  A    between atoms: _184  and  _185
REMARK   72  A    between atoms: _191  and  _193
REMARK   73  A    between atoms: _193  and  _194
REMARK   74  A    between atoms: _193  and  _196
REMARK   75  A    between atoms: _196  and  _197
REMARK   76  A    between atoms: _203  and  _205
REMARK   77  A    between atoms: _205  and  _206
REMARK   78  A    between atoms: _205  and  _208
REMARK   79  A    between atoms: _208  and  _209
REMARK   80  A    between atoms: _209  and  _210
REMARK   81  A    between atoms: _213  and  _215
REMARK   82  A    between atoms: _215  and  _216
REMARK   83  A    between atoms: _218  and  _220
REMARK   84  A    between atoms: _220  and  _221
REMARK   85  A    between atoms: _220  and  _223
REMARK   86  A    between atoms: _223  and  _224
REMARK   87  A    between atoms: _224  and  _225
REMARK   88  A    between atoms: _225  and  _226
REMARK   89  A    between atoms: _235  and  _237
REMARK   90  A    between atoms: _237  and  _238
REMARK   91  A    between atoms: _237  and  _240
REMARK   92  A    between atoms: _240  and  _241
REMARK   93  A    between atoms: _241  and  _242
REMARK   94  A    between atoms: _245  and  _247
REMARK   95  A    between atoms: _247  and  _248
REMARK   96  A    between atoms: _247  and  _250
REMARK   97  A    between atoms: _250  and  _251
REMARK   98  A    between atoms: _256  and  _258
REMARK   99  A    between atoms: _258  and  _259
REMARK  100  A    between atoms: _258  and  _261
REMARK  101  A    between atoms: _261  and  _262
REMARK  102  A    between atoms: _265  and  _267
REMARK  103  A    between atoms: _267  and  _268
REMARK  104  A    between atoms: _267  and  _270
REMARK  105  A    between atoms: _270  and  _271
REMARK  106  A    between atoms: _274  and  _276
REMARK  107  A    between atoms: _276  and  _277
REMARK  108  A    between atoms: _276  and  _279
REMARK  109  A    between atoms: _279  and  _280
REMARK  110  A    between atoms: _285  and  _287
REMARK  111  A    between atoms: _287  and  _288
REMARK  112  A    between atoms: _287  and  _290
REMARK  113  A    between atoms: _290  and  _291
REMARK  114  A    between atoms: _294  and  _296
REMARK  115  A    between atoms: _296  and  _297
REMARK  116  A    between atoms: _296  and  _299
REMARK  117  A    between atoms: _299  and  _300
REMARK  118  A    between atoms: _305  and  _307
REMARK  119  A    between atoms: _307  and  _308
REMARK  120  A    between atoms: _307  and  _310
REMARK  121  A    between atoms: _310  and  _311
REMARK  122  A    between atoms: _316  and  _318
REMARK  123  A    between atoms: _318  and  _319
REMARK  124  A    between atoms: _318  and  _321
REMARK  125  A    between atoms: _321  and  _322
REMARK  126  A    between atoms: _325  and  _327
REMARK  127  A    between atoms: _327  and  _328
REMARK  128  A    between atoms: _327  and  _330
REMARK  129  A    between atoms: _333  and  _335
REMARK  130  A    between atoms: _335  and  _336
REMARK  131  A    between atoms: _335  and  _338
REMARK  132  A    between atoms: _338  and  _339
REMARK  133  A    between atoms: _342  and  _344
REMARK  134  A    between atoms: _344  and  _345
REMARK  135  A    between atoms: _344  and  _347
REMARK  136  A    between atoms: _347  and  _348
REMARK  137  A    between atoms: _348  and  _349
REMARK  138  A    between atoms: _352  and  _354
REMARK  139  A    between atoms: _354  and  _355
REMARK  140  A    between atoms: _358  and  _360
REMARK  141  A    between atoms: _360  and  _361
REMARK  142  A    between atoms: _360  and  _363
REMARK  143  A    between atoms: _363  and  _364
REMARK  144  A    between atoms: _367  and  _369
REMARK  145  A    between atoms: _369  and  _370
REMARK  146  A    between atoms: _369  and  _372
REMARK  147  A    between atoms: _372  and  _373
REMARK  148  A    between atoms: _373  and  _374
REMARK  149  A    between atoms: _377  and  _379
REMARK  150  A    between atoms: _379  and  _380
REMARK  151  A    between atoms: _379  and  _382
REMARK  152  A    between atoms: _382  and  _383
REMARK  153  A    between atoms: _383  and  _384
REMARK  154  A    between atoms: _384  and  _385
REMARK  155  A    between atoms: _394  and  _396
REMARK  156  A    between atoms: _396  and  _397
REMARK  157  A    between atoms: _396  and  _399
REMARK  158  A    between atoms: _399  and  _400
REMARK  159  A    between atoms: _410  and  _412
REMARK  160  A    between atoms: _412  and  _413
REMARK  161  A    between atoms: _412  and  _415
REMARK  162  A    between atoms: _415  and  _416
REMARK  163  A    between atoms: _421  and  _423
REMARK  164  A    between atoms: _423  and  _424
REMARK  165  A    between atoms: _426  and  _428
REMARK  166  A    between atoms: _428  and  _429
REMARK  167  A    between atoms: _428  and  _431
REMARK  168  A    between atoms: _434  and  _436
REMARK  169  A    between atoms: _436  and  _437
REMARK  170  A    between atoms: _440  and  _442
REMARK  171  A    between atoms: _442  and  _443
REMARK  172  A    between atoms: _442  and  _445
REMARK  173  A    between atoms: _445  and  _446
REMARK  174  A    between atoms: _451  and  _453
REMARK  175  A    between atoms: _453  and  _454
REMARK  176  A    between atoms: _453  and  _456
REMARK  177  A    between atoms: _456  and  _457
REMARK  178  A    between atoms: _457  and  _458
REMARK  179  A    between atoms: _458  and  _459
REMARK  180  A    between atoms: _459  and  _460
REMARK  181  A    between atoms: _464  and  _466
REMARK  182  A    between atoms: _466  and  _467
REMARK  183  A    between atoms: _466  and  _469
REMARK  184  A    between atoms: _469  and  _470
REMARK  185  A    between atoms: _475  and  _477
REMARK  186  A    between atoms: _477  and  _478
REMARK  187  A    between atoms: _480  and  _482
REMARK  188  A    between atoms: _482  and  _483
REMARK  189  A    between atoms: _482  and  _485
REMARK  190  A    between atoms: _485  and  _486
REMARK  191  A    between atoms: _486  and  _487
REMARK  192  A    between atoms: _487  and  _488
REMARK  193  A    between atoms: _488  and  _489
REMARK  194  A    between atoms: _493  and  _495
REMARK  195  A    between atoms: _495  and  _496
REMARK  196  A    between atoms: _495  and  _498
REMARK  197  A    between atoms: _498  and  _499
REMARK  198  A    between atoms: _499  and  _500
REMARK  199  A    between atoms: _500  and  _501
REMARK  200  A    between atoms: _510  and  _512
REMARK  201  A    between atoms: _512  and  _513
REMARK  202  A    between atoms: _512  and  _515
REMARK  203  A    between atoms: _515  and  _516
REMARK  204  A    between atoms: _521  and  _522
REMARK  205  A    between atoms: _524  and  _526
REMARK  206  A    between atoms: _526  and  _527
REMARK  207  A    between atoms: _526  and  _529
REMARK  208  A    between atoms: _529  and  _530
REMARK  209  A    between atoms: _530  and  _531
REMARK  210  A    between atoms: _531  and  _532
REMARK  211  A    between atoms: _532  and  _533
REMARK  212  A    between atoms: _537  and  _539
REMARK  213  A    between atoms: _539  and  _540
REMARK  214  A    between atoms: _539  and  _542
REMARK  215  A    between atoms: _542  and  _543
REMARK  216  A    between atoms: _545  and  _547
REMARK  217  A    between atoms: _547  and  _548
REMARK  218  A    between atoms: _547  and  _550
REMARK  219  A    between atoms: _550  and  _551
REMARK  220  A    between atoms: _554  and  _556
REMARK  221  A    between atoms: _556  and  _557
REMARK  222  A    between atoms: _556  and  _559
REMARK  223  A    between atoms: _559  and  _560
REMARK  224  A    between atoms: _560  and  _561
REMARK  225  A    between atoms: _564  and  _566
REMARK  226  A    between atoms: _566  and  _567
REMARK  227  A    between atoms: _570  and  _572
REMARK  228  A    between atoms: _572  and  _573
REMARK  229  A    between atoms: _572  and  _575
REMARK  230  A    between atoms: _575  and  _576
REMARK  231  A    between atoms: _578  and  _580
REMARK  232  A    between atoms: _580  and  _581
REMARK  233  A    between atoms: _583  and  _585
REMARK  234  A    between atoms: _585  and  _586
REMARK  235  A    between atoms: _585  and  _588
REMARK  236  A    between atoms: _588  and  _589
REMARK  237  A    between atoms: _592  and  _594
REMARK  238  A    between atoms: _594  and  _595
REMARK  239  A    between atoms: _597  and  _599
REMARK  240  A    between atoms: _599  and  _600
REMARK  241  A    between atoms: _599  and  _602
REMARK  242  A    between atoms: _602  and  _603
REMARK  243  A    between atoms: _608  and  _610
REMARK  244  A    between atoms: _610  and  _611
REMARK  245  A    between atoms: _610  and  _613
REMARK  246  A    between atoms: _613  and  _614
REMARK  247  A    between atoms: _614  and  _615
REMARK  248  A    between atoms: _622  and  _623
REMARK  249  A    between atoms: _623  and  _639
REMARK  250  A    between atoms: _624  and  _626
REMARK  251  A    between atoms: _626  and  _627
REMARK  252  A    between atoms: _627  and  _628
REMARK  253  A    between atoms: _632  and  _634
REMARK  254  A    between atoms: _634  and  _635
REMARK  255  A    between atoms: _634  and  _642
REMARK  256  A    between atoms: _635  and  _636
REMARK  257  A    between atoms: _636  and  _637
REMARK  258  A    between atoms: _637  and  _638
REMARK  259  A    between atoms: _638  and  _639
REMARK  260  A    between atoms: _644  and  _646
REMARK  261  A    between atoms: _646  and  _647
REMARK  262  A    between atoms: _646  and  _649
REMARK  263  A    between atoms: _649  and  _650
REMARK  264  A    between atoms: _653  and  _655
REMARK  265  A    between atoms: _655  and  _656
REMARK  266  A    between atoms: _658  and  _660
REMARK  267  A    between atoms: _660  and  _661
REMARK  268  A    between atoms: _664  and  _666
REMARK  269  A    between atoms: _666  and  _667
REMARK  270  A    between atoms: _666  and  _669
REMARK  271  A    between atoms: _669  and  _670
REMARK  272  A    between atoms: _675  and  _676
REMARK                            x       y       z     vdW  Elec       q    Type
REMARK                         _______ _______ _______ _____ _____    ______ ____
ROOT
ATOM      1  CA  HIS A   3      38.074  20.101  27.464  0.00  0.00    +0.155 C 
ENDROOT
BRANCH   1   3
ATOM      2  C   ASN A   2      39.622  18.189  27.487  0.00  0.00    +0.241 C 
ATOM      3  N   HIS A   3      39.303  19.426  27.882  0.00  0.00    -0.297 N 
ATOM      4  H   HIS A   3      39.957  19.930  28.514  0.00  0.00    +0.150 HD
ATOM      5  O   ASN A   2      38.952  17.539  26.665  0.00  0.00    -0.273 OA
BRANCH   2   6
ATOM      6  CA  ASN A   2      40.873  17.579  28.113  0.00  0.00    +0.158 C 
BRANCH   6   9
ATOM      7  C   THR A   1      40.240  15.755  29.631  0.00  0.00    +0.241 C 
ATOM      8  O   THR A   1      40.095  16.512  30.599  0.00  0.00    -0.274 OA
ATOM      9  N   ASN A   2      40.629  16.169  28.429  0.00  0.00    -0.297 N 
ATOM     10  H   ASN A   2      40.766  15.461  27.680  0.00  0.00    +0.150 HD
BRANCH   7  11
ATOM     11  CA  THR A   1      39.968  14.264  29.769  0.00  0.00    +0.172 C 
BRANCH  11  12
ATOM     12  N   THR A   1      40.801  13.715  30.840  0.00  0.00    -0.236 NA
ATOM     13  H   THR A   1      40.579  13.963  31.826  0.00  0.00    +0.142 HD
ENDBRANCH  11  12
BRANCH  11  14
ATOM     14  CB  THR A   1      38.469  14.055  30.061  0.00  0.00    +0.135 C 
ATOM     15  CG2 THR A   1      37.601  14.619  28.924  0.00  0.00    +0.034 C 
BRANCH  14  16
ATOM     16  OG1 THR A   1      38.205  12.657  30.213  0.00  0.00    -0.383 OA
ATOM     17  HG1 THR A   1      38.449  12.184  29.378  0.00  0.00    +0.210 HD
ENDBRANCH  14  16
ENDBRANCH  11  14
ENDBRANCH   7  11
ENDBRANCH   6   9
BRANCH   6  18
ATOM     18  CB  ASN A   2      42.089  17.704  27.167  0.00  0.00    +0.114 C 
BRANCH  18  19
ATOM     19  CG  ASN A   2      42.274  19.126  26.621  0.00  0.00    +0.222 C 
ATOM     20  ND2 ASN A   2      43.185  19.884  27.220  0.00  0.00    -0.329 N 
ATOM     21 HD21 ASN A   2      43.725  19.509  28.026  0.00  0.00    +0.145 HD
ATOM     22 HD22 ASN A   2      43.359  20.852  26.883  0.00  0.00    +0.145 HD
ATOM     23  OD1 ASN A   2      41.613  19.522  25.668  0.00  0.00    -0.275 OA
ENDBRANCH  18  19
ENDBRANCH   6  18
ENDBRANCH   2   6
ENDBRANCH   1   3
BRANCH   1  24
ATOM     24  C   HIS A   3      38.259  21.392  26.645  0.00  0.00    +0.241 C 
ATOM     25  N   THR A   4      39.489  21.858  26.439  0.00  0.00    -0.295 N 
ATOM     26  H   THR A   4      40.311  21.358  26.835  0.00  0.00    +0.150 HD
ATOM     27  O   HIS A   3      37.277  21.975  26.213  0.00  0.00    -0.273 OA
BRANCH  25  28
ATOM     28  CA  THR A   4      39.680  23.091  25.644  0.00  0.00    +0.176 C 
BRANCH  28  29
ATOM     29  C   THR A   4      41.119  23.257  25.193  0.00  0.00    +0.243 C 
ATOM     30  O   THR A   4      42.033  22.731  25.828  0.00  0.00    -0.273 OA
ATOM     31  N   VAL A   5      41.307  23.990  24.100  0.00  0.00    -0.297 N 
ATOM     32  H   VAL A   5      40.480  24.352  23.583  0.00  0.00    +0.150 HD
BRANCH  31  33
ATOM     33  CA  VAL A   5      42.644  24.299  23.609  0.00  0.00    +0.149 C 
BRANCH  33  34
ATOM     34  C   VAL A   5      42.998  25.774  23.801  0.00  0.00    +0.241 C 
ATOM     35  N   LEU A   6      42.065  26.579  24.313  0.00  0.00    -0.298 N 
ATOM     36  H   LEU A   6      41.133  26.191  24.564  0.00  0.00    +0.150 HD
ATOM     37  O   VAL A   5      44.106  26.174  23.475  0.00  0.00    -0.273 OA
BRANCH  35  38
ATOM     38  CA  LEU A   6      42.337  28.003  24.526  0.00  0.00    +0.137 C 
BRANCH  38  39
ATOM     39  C   LEU A   6      43.427  28.184  25.584  0.00  0.00    +0.227 C 
ATOM     40  O   LEU A   6      43.299  27.662  26.692  0.00  0.00    -0.286 OA
ENDBRANCH  38  39
BRANCH  38  41
ATOM     41  CB  LEU A   6      41.072  28.771  24.927  0.00  0.00    +0.028 C 
BRANCH  41  42
ATOM     42  CG  LEU A   6      39.906  28.862  23.932  0.00  0.00    +0.002 C 
ATOM     43  CD2 LEU A   6      38.752  29.584  24.591  0.00  0.00    +0.000 C 
ATOM     44  CD1 LEU A   6      40.304  29.558  22.629  0.00  0.00    +0.000 C 
ENDBRANCH  41  42
ENDBRANCH  38  41
ENDBRANCH  35  38
ENDBRANCH  33  34
BRANCH  33  45
ATOM     45  CB  VAL A   5      42.849  23.898  22.108  0.00  0.00    +0.027 C 
ATOM     46  CG2 VAL A   5      42.493  22.420  21.879  0.00  0.00    +0.002 C 
ATOM     47  CG1 VAL A   5      42.058  24.835  21.166  0.00  0.00    +0.002 C 
ENDBRANCH  33  45
ENDBRANCH  31  33
ENDBRANCH  28  29
BRANCH  28  48
ATOM     48  CB  THR A   4      39.197  24.390  26.384  0.00  0.00    +0.137 C 
ATOM     49  CG2 THR A   4      39.921  24.578  27.715  0.00  0.00    +0.034 C 
BRANCH  48  50
ATOM     50  OG1 THR A   4      39.394  25.554  25.549  0.00  0.00    -0.382 OA
ATOM     51  HG1 THR A   4      38.876  25.450  24.712  0.00  0.00    +0.210 HD
ENDBRANCH  48  50
ENDBRANCH  28  48
ENDBRANCH  25  28
ENDBRANCH   1  24
BRANCH   1  52
ATOM     52  CB  HIS A   3      37.191  20.421  28.685  0.00  0.00    +0.076 C 
BRANCH  52  53
ATOM     53  CG  HIS A   3      36.635  19.218  29.379  0.00  0.00    +0.082 A 
ATOM     54  CD2 HIS A   3      37.094  18.512  30.439  0.00  0.00    +0.115 A 
ATOM     55  NE2 HIS A   3      36.189  17.507  30.678  0.00  0.00    -0.221 NA
ATOM     56  CE1 HIS A   3      35.202  17.599  29.803  0.00  0.00    +0.199 A 
ATOM     57  ND1 HIS A   3      35.447  18.628  29.011  0.00  0.00    -0.227 NA
ENDBRANCH  52  53
ENDBRANCH   1  52
TORSDOF 23
REMARK  Name = ../refined-set-2016/3l7a/3l7a_pocket.pdb
REMARK  272 active torsions:
REMARK  status: ('A' for Active; 'I' for Inactive)
REMARK    1  A    between atoms: _1  and  _3
REMARK    2  A    between atoms: _3  and  _4
REMARK    3  A    between atoms: _3  and  _6
REMARK    4  A    between atoms: _6  and  _7
REMARK    5  A    between atoms: _12  and  _13
REMARK    6  A    between atoms: _15  and  _17
REMARK    7  A    between atoms: _17  and  _18
REMARK    8  A    between atoms: _17  and  _20
REMARK    9  A    between atoms: _20  and  _21
REMARK   10  A    between atoms: _24  and  _26
REMARK   11  A    between atoms: _26  and  _27
REMARK   12  A    between atoms: _26  and  _29
REMARK   13  A    between atoms: _29  and  _30
REMARK   14  A    between atoms: _30  and  _31
REMARK   15  A    between atoms: _34  and  _36
REMARK   16  A    between atoms: _36  and  _37
REMARK   17  A    between atoms: _36  and  _39
REMARK   18  A    between atoms: _39  and  _40
REMARK   19  A    between atoms: _45  and  _46
REMARK   20  A    between atoms: _48  and  _50
REMARK   21  A    between atoms: _50  and  _51
REMARK   22  A    between atoms: _50  and  _53
REMARK   23  A    between atoms: _53  and  _54
REMARK   24  A    between atoms: _59  and  _61
REMARK   25  A    between atoms: _61  and  _62
REMARK   26  A    between atoms: _64  and  _66
REMARK   27  A    between atoms: _66  and  _67
REMARK   28  A    between atoms: _69  and  _71
REMARK   29  A    between atoms: _71  and  _72
REMARK   30  A    between atoms: _71  and  _74
REMARK   31  A    between atoms: _74  and  _75
REMARK   32  A    between atoms: _78  and  _80
REMARK   33  A    between atoms: _80  and  _81
REMARK   34  A    between atoms: _83  and  _85
REMARK   35  A    between atoms: _85  and  _86
REMARK   36  A    between atoms: _85  and  _88
REMARK   37  A    between atoms: _88  and  _89
REMARK   38  A    between atoms: _89  and  _90
REMARK   39  A    between atoms: _90  and  _91
REMARK   40  A    between atoms: _100  and  _102
REMARK   41  A    between atoms: _102  and  _103
REMARK   42  A    between atoms: _102  and  _105
REMARK   43  A    between atoms: _105  and  _106
REMARK   44  A    between atoms: _109  and  _111
REMARK   45  A    between atoms: _111  and  _112
REMARK   46  A    between atoms: _115  and  _117
REMARK   47  A    between atoms: _117  and  _118
REMARK   48  A    between atoms: _117  and  _120
REMARK   49  A    between atoms: _120  and  _121
REMARK   50  A    between atoms: _127  and  _129
REMARK   51  A    between atoms: _129  and  _130
REMARK   52  A    between atoms: _129  and  _132
REMARK   53  A    between atoms: _132  and  _133
REMARK   54  A    between atoms: _138  and  _139
REMARK   55  A    between atoms: _142  and  _143
REMARK   56  A    between atoms: _148  and  _150
REMARK   57  A    between atoms: _150  and  _151
REMARK   58  A    between atoms: _150  and  _153
REMARK   59  A    between atoms: _153  and  _154
REMARK   60  A    between atoms: _159  and  _161
REMARK   61  A    between atoms: _161  and  _162
REMARK   62  A    between atoms: _161  and  _164
REMARK   63  A    between atoms: _164  and  _165
REMARK   64  A    between atoms: _168  and  _170
REMARK   65  A    between atoms: _170  and  _171
REMARK   66  A    between atoms: _170  and  _173
REMARK   67  A    between atoms: _173  and  _174
REMARK   68  A    between atoms: _179  and  _181
REMARK   69  A    between atoms: _181  and  _182
REMARK   70  A    between atoms: _181  and  _184
REMARK   71  A    between atoms: _184  and  _185
REMARK   72  A    between atoms: _191  and  _193
REMARK   73  A    between atoms: _193  and  _194
REMARK   74  A    between atoms: _193  and  _196
REMARK   75  A    between atoms: _196  and  _197
REMARK   76  A    between atoms: _203  and  _205
REMARK   77  A    between atoms: _205  and  _206
REMARK   78  A    between atoms: _205  and  _208
REMARK   79  A    between atoms: _208  and  _209
REMARK   80  A    between atoms: _209  and  _210
REMARK   81  A    between atoms: _213  and  _215
REMARK   82  A    between atoms: _215  and  _216
REMARK   83  A    between atoms: _218  and  _220
REMARK   84  A    between atoms: _220  and  _221
REMARK   85  A    between atoms: _220  and  _223
REMARK   86  A    between atoms: _223  and  _224
REMARK   87  A    between atoms: _224  and  _225
REMARK   88  A    between atoms: _225  and  _226
REMARK   89  A    between atoms: _235  and  _237
REMARK   90  A    between atoms: _237  and  _238
REMARK   91  A    between atoms: _237  and  _240
REMARK   92  A    between atoms: _240  and  _241
REMARK   93  A    between atoms: _241  and  _242
REMARK   94  A    between atoms: _245  and  _247
REMARK   95  A    between atoms: _247  and  _248
REMARK   96  A    between atoms: _247  and  _250
REMARK   97  A    between atoms: _250  and  _251
REMARK   98  A    between atoms: _256  and  _258
REMARK   99  A    between atoms: _258  and  _259
REMARK  100  A    between atoms: _258  and  _261
REMARK  101  A    between atoms: _261  and  _262
REMARK  102  A    between atoms: _265  and  _267
REMARK  103  A    between atoms: _267  and  _268
REMARK  104  A    between atoms: _267  and  _270
REMARK  105  A    between atoms: _270  and  _271
REMARK  106  A    between atoms: _274  and  _276
REMARK  107  A    between atoms: _276  and  _277
REMARK  108  A    between atoms: _276  and  _279
REMARK  109  A    between atoms: _279  and  _280
REMARK  110  A    between atoms: _285  and  _287
REMARK  111  A    between atoms: _287  and  _288
REMARK  112  A    between atoms: _287  and  _290
REMARK  113  A    between atoms: _290  and  _291
REMARK  114  A    between atoms: _294  and  _296
REMARK  115  A    between atoms: _296  and  _297
REMARK  116  A    between atoms: _296  and  _299
REMARK  117  A    between atoms: _299  and  _300
REMARK  118  A    between atoms: _305  and  _307
REMARK  119  A    between atoms: _307  and  _308
REMARK  120  A    between atoms: _307  and  _310
REMARK  121  A    between atoms: _310  and  _311
REMARK  122  A    between atoms: _316  and  _318
REMARK  123  A    between atoms: _318  and  _319
REMARK  124  A    between atoms: _318  and  _321
REMARK  125  A    between atoms: _321  and  _322
REMARK  126  A    between atoms: _325  and  _327
REMARK  127  A    between atoms: _327  and  _328
REMARK  128  A    between atoms: _327  and  _330
REMARK  129  A    between atoms: _333  and  _335
REMARK  130  A    between atoms: _335  and  _336
REMARK  131  A    between atoms: _335  and  _338
REMARK  132  A    between atoms: _338  and  _339
REMARK  133  A    between atoms: _342  and  _344
REMARK  134  A    between atoms: _344  and  _345
REMARK  135  A    between atoms: _344  and  _347
REMARK  136  A    between atoms: _347  and  _348
REMARK  137  A    between atoms: _348  and  _349
REMARK  138  A    between atoms: _352  and  _354
REMARK  139  A    between atoms: _354  and  _355
REMARK  140  A    between atoms: _358  and  _360
REMARK  141  A    between atoms: _360  and  _361
REMARK  142  A    between atoms: _360  and  _363
REMARK  143  A    between atoms: _363  and  _364
REMARK  144  A    between atoms: _367  and  _369
REMARK  145  A    between atoms: _369  and  _370
REMARK  146  A    between atoms: _369  and  _372
REMARK  147  A    between atoms: _372  and  _373
REMARK  148  A    between atoms: _373  and  _374
REMARK  149  A    between atoms: _377  and  _379
REMARK  150  A    between atoms: _379  and  _380
REMARK  151  A    between atoms: _379  and  _382
REMARK  152  A    between atoms: _382  and  _383
REMARK  153  A    between atoms: _383  and  _384
REMARK  154  A    between atoms: _384  and  _385
REMARK  155  A    between atoms: _394  and  _396
REMARK  156  A    between atoms: _396  and  _397
REMARK  157  A    between atoms: _396  and  _399
REMARK  158  A    between atoms: _399  and  _400
REMARK  159  A    between atoms: _410  and  _412
REMARK  160  A    between atoms: _412  and  _413
REMARK  161  A    between atoms: _412  and  _415
REMARK  162  A    between atoms: _415  and  _416
REMARK  163  A    between atoms: _421  and  _423
REMARK  164  A    between atoms: _423  and  _424
REMARK  165  A    between atoms: _426  and  _428
REMARK  166  A    between atoms: _428  and  _429
REMARK  167  A    between atoms: _428  and  _431
REMARK  168  A    between atoms: _434  and  _436
REMARK  169  A    between atoms: _436  and  _437
REMARK  170  A    between atoms: _440  and  _442
REMARK  171  A    between atoms: _442  and  _443
REMARK  172  A    between atoms: _442  and  _445
REMARK  173  A    between atoms: _445  and  _446
REMARK  174  A    between atoms: _451  and  _453
REMARK  175  A    between atoms: _453  and  _454
REMARK  176  A    between atoms: _453  and  _456
REMARK  177  A    between atoms: _456  and  _457
REMARK  178  A    between atoms: _457  and  _458
REMARK  179  A    between atoms: _458  and  _459
REMARK  180  A    between atoms: _459  and  _460
REMARK  181  A    between atoms: _464  and  _466
REMARK  182  A    between atoms: _466  and  _467
REMARK  183  A    between atoms: _466  and  _469
REMARK  184  A    between atoms: _469  and  _470
REMARK  185  A    between atoms: _475  and  _477
REMARK  186  A    between atoms: _477  and  _478
REMARK  187  A    between atoms: _480  and  _482
REMARK  188  A    between atoms: _482  and  _483
REMARK  189  A    between atoms: _482  and  _485
REMARK  190  A    between atoms: _485  and  _486
REMARK  191  A    between atoms: _486  and  _487
REMARK  192  A    between atoms: _487  and  _488
REMARK  193  A    between atoms: _488  and  _489
REMARK  194  A    between atoms: _493  and  _495
REMARK  195  A    between atoms: _495  and  _496
REMARK  196  A    between atoms: _495  and  _498
REMARK  197  A    between atoms: _498  and  _499
REMARK  198  A    between atoms: _499  and  _500
REMARK  199  A    between atoms: _500  and  _501
REMARK  200  A    between atoms: _510  and  _512
REMARK  201  A    between atoms: _512  and  _513
REMARK  202  A    between atoms: _512  and  _515
REMARK  203  A    between atoms: _515  and  _516
REMARK  204  A    between atoms: _521  and  _522
REMARK  205  A    between atoms: _524  and  _526
REMARK  206  A    between atoms: _526  and  _527
REMARK  207  A    between atoms: _526  and  _529
REMARK  208  A    between atoms: _529  and  _530
REMARK  209  A    between atoms: _530  and  _531
REMARK  210  A    between atoms: _531  and  _532
REMARK  211  A    between atoms: _532  and  _533
REMARK  212  A    between atoms: _537  and  _539
REMARK  213  A    between atoms: _539  and  _540
REMARK  214  A    between atoms: _539  and  _542
REMARK  215  A    between atoms: _542  and  _543
REMARK  216  A    between atoms: _545  and  _547
REMARK  217  A    between atoms: _547  and  _548
REMARK  218  A    between atoms: _547  and  _550
REMARK  219  A    between atoms: _550  and  _551
REMARK  220  A    between atoms: _554  and  _556
REMARK  221  A    between atoms: _556  and  _557
REMARK  222  A    between atoms: _556  and  _559
REMARK  223  A    between atoms: _559  and  _560
REMARK  224  A    between atoms: _560  and  _561
REMARK  225  A    between atoms: _564  and  _566
REMARK  226  A    between atoms: _566  and  _567
REMARK  227  A    between atoms: _570  and  _572
REMARK  228  A    between atoms: _572  and  _573
REMARK  229  A    between atoms: _572  and  _575
REMARK  230  A    between atoms: _575  and  _576
REMARK  231  A    between atoms: _578  and  _580
REMARK  232  A    between atoms: _580  and  _581
REMARK  233  A    between atoms: _583  and  _585
REMARK  234  A    between atoms: _585  and  _586
REMARK  235  A    between atoms: _585  and  _588
REMARK  236  A    between atoms: _588  and  _589
REMARK  237  A    between atoms: _592  and  _594
REMARK  238  A    between atoms: _594  and  _595
REMARK  239  A    between atoms: _597  and  _599
REMARK  240  A    between atoms: _599  and  _600
REMARK  241  A    between atoms: _599  and  _602
REMARK  242  A    between atoms: _602  and  _603
REMARK  243  A    between atoms: _608  and  _610
REMARK  244  A    between atoms: _610  and  _611
REMARK  245  A    between atoms: _610  and  _613
REMARK  246  A    between atoms: _613  and  _614
REMARK  247  A    between atoms: _614  and  _615
REMARK  248  A    between atoms: _622  and  _623
REMARK  249  A    between atoms: _623  and  _639
REMARK  250  A    between atoms: _624  and  _626
REMARK  251  A    between atoms: _626  and  _627
REMARK  252  A    between atoms: _627  and  _628
REMARK  253  A    between atoms: _632  and  _634
REMARK  254  A    between atoms: _634  and  _635
REMARK  255  A    between atoms: _634  and  _642
REMARK  256  A    between atoms: _635  and  _636
REMARK  257  A    between atoms: _636  and  _637
REMARK  258  A    between atoms: _637  and  _638
REMARK  259  A    between atoms: _638  and  _639
REMARK  260  A    between atoms: _644  and  _646
REMARK  261  A    between atoms: _646  and  _647
REMARK  262  A    between atoms: _646  and  _649
REMARK  263  A    between atoms: _649  and  _650
REMARK  264  A    between atoms: _653  and  _655
REMARK  265  A    between atoms: _655  and  _656
REMARK  266  A    between atoms: _658  and  _660
REMARK  267  A    between atoms: _660  and  _661
REMARK  268  A    between atoms: _664  and  _666
REMARK  269  A    between atoms: _666  and  _667
REMARK  270  A    between atoms: _666  and  _669
REMARK  271  A    between atoms: _669  and  _670
REMARK  272  A    between atoms: _675  and  _676
REMARK                            x       y       z     vdW  Elec       q    Type
REMARK                         _______ _______ _______ _____ _____    ______ ____
ROOT
ATOM      1  C   GLU A   4      47.581  25.636  34.610  0.00  0.00    +0.241 C 
ATOM      2  N   ARG A   5      48.205  26.729  35.020  0.00  0.00    -0.297 N 
ATOM      3  H   ARG A   5      47.637  27.571  35.245  0.00  0.00    +0.150 HD
ATOM      4  O   GLU A   4      48.154  24.600  34.293  0.00  0.00    -0.273 OA
ENDROOT
BRANCH   1   5
ATOM      5  CA  GLU A   4      46.070  25.722  34.568  0.00  0.00    +0.149 C 
BRANCH   5   7
ATOM      6  C   LEU A   3      45.657  26.475  32.298  0.00  0.00    +0.241 C 
ATOM      7  N   GLU A   4      45.620  25.500  33.203  0.00  0.00    -0.297 N 
ATOM      8  H   GLU A   4      45.263  24.562  32.929  0.00  0.00    +0.150 HD
ATOM      9  O   LEU A   3      46.076  27.605  32.549  0.00  0.00    -0.273 OA
BRANCH   6  10
ATOM     10  CA  LEU A   3      45.125  26.127  30.906  0.00  0.00    +0.149 C 
BRANCH  10  13
ATOM     11  C   ALA A   2      42.983  27.286  30.869  0.00  0.00    +0.241 C 
ATOM     12  O   ALA A   2      42.557  26.613  31.821  0.00  0.00    -0.273 OA
ATOM     13  N   LEU A   3      44.224  27.159  30.402  0.00  0.00    -0.297 N 
ATOM     14  H   LEU A   3      44.558  27.809  29.662  0.00  0.00    +0.150 HD
BRANCH  11  15
ATOM     15  CA  ALA A   2      42.085  28.325  30.174  0.00  0.00    +0.149 C 
ATOM     16  CB  ALA A   2      40.985  27.632  29.370  0.00  0.00    +0.031 C 
BRANCH  15  19
ATOM     17  C   GLU A   1      43.347  30.392  29.779  0.00  0.00    +0.238 C 
ATOM     18  O   GLU A   1      43.236  30.753  30.951  0.00  0.00    -0.274 OA
ATOM     19  N   ALA A   2      42.826  29.257  29.317  0.00  0.00    -0.297 N 
ATOM     20  H   ALA A   2      42.949  29.023  28.311  0.00  0.00    +0.150 HD
BRANCH  17  21
ATOM     21  CA  GLU A   1      44.110  31.268  28.775  0.00  0.00    +0.145 C 
BRANCH  21  22
ATOM     22  N   GLU A   1      44.452  30.589  27.528  0.00  0.00    -0.238 NA
ATOM     23  H   GLU A   1      43.949  30.850  26.656  0.00  0.00    +0.142 HD
ENDBRANCH  21  22
BRANCH  21  24
ATOM     24  CB  GLU A   1      43.335  32.564  28.503  0.00  0.00    +0.038 C 
BRANCH  24  25
ATOM     25  CG  GLU A   1      41.969  32.380  27.846  0.00  0.00    +0.116 C 
BRANCH  25  26
ATOM     26  CD  GLU A   1      42.008  32.486  26.324  0.00  0.00    +0.365 C 
ATOM     27  OE2 GLU A   1      41.011  32.967  25.749  0.00  0.00    -0.246 OA
ATOM     28  OE1 GLU A   1      43.013  32.082  25.698  0.00  0.00    -0.246 OA
ENDBRANCH  25  26
ENDBRANCH  24  25
ENDBRANCH  21  24
ENDBRANCH  17  21
ENDBRANCH  15  19
ENDBRANCH  11  15
ENDBRANCH  10  13
BRANCH  10  29
ATOM     29  CB  LEU A   3      46.278  25.875  29.923  0.00  0.00    +0.029 C 
BRANCH  29  30
ATOM     30  CG  LEU A   3      45.993  25.426  28.473  0.00  0.00    +0.002 C 
ATOM     31  CD2 LEU A   3      44.573  24.887  28.197  0.00  0.00    +0.000 C 
ATOM     32  CD1 LEU A   3      47.030  24.386  28.045  0.00  0.00    +0.000 C 
ENDBRANCH  29  30
ENDBRANCH  10  29
ENDBRANCH   6  10
ENDBRANCH   5   7
BRANCH   5  33
ATOM     33  CB  GLU A   4      45.490  24.684  35.533  0.00  0.00    +0.041 C 
BRANCH  33  34
ATOM     34  CG  GLU A   4      43.972  24.747  35.721  0.00  0.00    +0.116 C 
BRANCH  34  35
ATOM     35  CD  GLU A   4      43.543  23.969  36.943  0.00  0.00    +0.365 C 
ATOM     36  OE2 GLU A   4      43.189  24.611  37.955  0.00  0.00    -0.246 OA
ATOM     37  OE1 GLU A   4      43.590  22.720  36.903  0.00  0.00    -0.246 OA
ENDBRANCH  34  35
ENDBRANCH  33  34
ENDBRANCH   5  33
ENDBRANCH   1   5
BRANCH   2  38
ATOM     38  CA  ARG A   5      49.649  26.805  35.170  0.00  0.00    +0.149 C 
BRANCH  38  39
ATOM     39  C   ARG A   5      49.955  27.461  36.518  0.00  0.00    +0.241 C 
ATOM     40  N   TRP A   6      50.209  26.641  37.530  0.00  0.00    -0.298 N 
ATOM     41  H   TRP A   6      50.345  25.628  37.338  0.00  0.00    +0.150 HD
ATOM     42  O   ARG A   5      49.921  28.680  36.650  0.00  0.00    -0.273 OA
BRANCH  40  43
ATOM     43  CA  TRP A   6      50.303  27.123  38.906  0.00  0.00    +0.141 C 
BRANCH  43  44
ATOM     44  C   TRP A   6      51.717  27.630  39.234  0.00  0.00    +0.227 C 
ATOM     45  O   TRP A   6      52.690  26.912  38.998  0.00  0.00    -0.286 OA
ENDBRANCH  43  44
BRANCH  43  46
ATOM     46  CB  TRP A   6      49.899  26.015  39.894  0.00  0.00    +0.056 C 
BRANCH  46  47
ATOM     47  CG  TRP A   6      48.410  25.742  39.946  0.00  0.00    -0.002 A 
ATOM     48  CD2 TRP A   6      47.406  26.555  40.575  0.00  0.00    +0.013 A 
ATOM     49  CE3 TRP A   6      47.438  27.769  41.287  0.00  0.00    +0.001 A 
ATOM     50  CZ3 TRP A   6      46.234  28.304  41.764  0.00  0.00    +0.000 A 
ATOM     51  CH2 TRP A   6      45.008  27.636  41.547  0.00  0.00    +0.001 A 
ATOM     52  CZ2 TRP A   6      44.951  26.445  40.853  0.00  0.00    +0.017 A 
ATOM     53  CE2 TRP A   6      46.155  25.916  40.368  0.00  0.00    +0.056 A 
ATOM     54  NE1 TRP A   6      46.393  24.765  39.662  0.00  0.00    -0.352 N 
ATOM     55  HE1 TRP A   6      45.670  24.080  39.363  0.00  0.00    +0.166 HD
ATOM     56  CD1 TRP A   6      47.746  24.661  39.411  0.00  0.00    +0.068 A 
ENDBRANCH  46  47
ENDBRANCH  43  46
ENDBRANCH  40  43
ENDBRANCH  38  39
BRANCH  38  57
ATOM     57  CB  ARG A   5      50.251  27.582  33.995  0.00  0.00    +0.033 C 
BRANCH  57  58
ATOM     58  CG  ARG A   5      50.180  26.821  32.666  0.00  0.00    +0.045 C 
BRANCH  58  59
ATOM     59  CD  ARG A   5      50.211  27.729  31.438  0.00  0.00    +0.174 C 
BRANCH  59  60
ATOM     60  NE  ARG A   5      51.324  28.669  31.461  0.00  0.00    -0.265 N 
ATOM     61  CZ  ARG A   5      51.184  29.982  31.632  0.00  0.00    +0.342 C 
ATOM     62  NH2 ARG A   5      49.974  30.504  31.787  0.00  0.00    -0.292 N 
ATOM     63 HH21 ARG A   5      49.863  31.529  31.921  0.00  0.00    +0.255 HD
ATOM     64 HH22 ARG A   5      49.136  29.888  31.775  0.00  0.00    +0.255 HD
ATOM     65  NH1 ARG A   5      52.252  30.780  31.647  0.00  0.00    -0.292 N 
ATOM     66 HH11 ARG A   5      52.134  31.805  31.781  0.00  0.00    +0.255 HD
ATOM     67 HH12 ARG A   5      53.203  30.378  31.525  0.00  0.00    +0.255 HD
ATOM     68  HE  ARG A   5      52.285  28.292  31.336  0.00  0.00    +0.259 HD
ENDBRANCH  59  60
ENDBRANCH  58  59
ENDBRANCH  57  58
ENDBRANCH  38  57
ENDBRANCH   2  38
TORSDOF 26
REMARK  Name = ../refined-set-2016/3l7a/3l7a_pocket.pdb
REMARK  272 active torsions:
REMARK  status: ('A' for Active; 'I' for Inactive)
REMARK    1  A    between atoms: _1  and  _3
REMARK    2  A    between atoms: _3  and  _4
REMARK    3  A    between atoms: _3  and  _6
REMARK    4  A    between atoms: _6  and  _7
REMARK    5  A    between atoms: _12  and  _13
REMARK    6  A    between atoms: _15  and  _17
REMARK    7  A    between atoms: _17  and  _18
REMARK    8  A    between atoms: _17  and  _20
REMARK    9  A    between atoms: _20  and  _21
REMARK   10  A    between atoms: _24  and  _26
REMARK   11  A    between atoms: _26  and  _27
REMARK   12  A    between atoms: _26  and  _29
REMARK   13  A    between atoms: _29  and  _30
REMARK   14  A    between atoms: _30  and  _31
REMARK   15  A    between atoms: _34  and  _36
REMARK   16  A    between atoms: _36  and  _37
REMARK   17  A    between atoms: _36  and  _39
REMARK   18  A    between atoms: _39  and  _40
REMARK   19  A    between atoms: _45  and  _46
REMARK   20  A    between atoms: _48  and  _50
REMARK   21  A    between atoms: _50  and  _51
REMARK   22  A    between atoms: _50  and  _53
REMARK   23  A    between atoms: _53  and  _54
REMARK   24  A    between atoms: _59  and  _61
REMARK   25  A    between atoms: _61  and  _62
REMARK   26  A    between atoms: _64  and  _66
REMARK   27  A    between atoms: _66  and  _67
REMARK   28  A    between atoms: _69  and  _71
REMARK   29  A    between atoms: _71  and  _72
REMARK   30  A    between atoms: _71  and  _74
REMARK   31  A    between atoms: _74  and  _75
REMARK   32  A    between atoms: _78  and  _80
REMARK   33  A    between atoms: _80  and  _81
REMARK   34  A    between atoms: _83  and  _85
REMARK   35  A    between atoms: _85  and  _86
REMARK   36  A    between atoms: _85  and  _88
REMARK   37  A    between atoms: _88  and  _89
REMARK   38  A    between atoms: _89  and  _90
REMARK   39  A    between atoms: _90  and  _91
REMARK   40  A    between atoms: _100  and  _102
REMARK   41  A    between atoms: _102  and  _103
REMARK   42  A    between atoms: _102  and  _105
REMARK   43  A    between atoms: _105  and  _106
REMARK   44  A    between atoms: _109  and  _111
REMARK   45  A    between atoms: _111  and  _112
REMARK   46  A    between atoms: _115  and  _117
REMARK   47  A    between atoms: _117  and  _118
REMARK   48  A    between atoms: _117  and  _120
REMARK   49  A    between atoms: _120  and  _121
REMARK   50  A    between atoms: _127  and  _129
REMARK   51  A    between atoms: _129  and  _130
REMARK   52  A    between atoms: _129  and  _132
REMARK   53  A    between atoms: _132  and  _133
REMARK   54  A    between atoms: _138  and  _139
REMARK   55  A    between atoms: _142  and  _143
REMARK   56  A    between atoms: _148  and  _150
REMARK   57  A    between atoms: _150  and  _151
REMARK   58  A    between atoms: _150  and  _153
REMARK   59  A    between atoms: _153  and  _154
REMARK   60  A    between atoms: _159  and  _161
REMARK   61  A    between atoms: _161  and  _162
REMARK   62  A    between atoms: _161  and  _164
REMARK   63  A    between atoms: _164  and  _165
REMARK   64  A    between atoms: _168  and  _170
REMARK   65  A    between atoms: _170  and  _171
REMARK   66  A    between atoms: _170  and  _173
REMARK   67  A    between atoms: _173  and  _174
REMARK   68  A    between atoms: _179  and  _181
REMARK   69  A    between atoms: _181  and  _182
REMARK   70  A    between atoms: _181  and  _184
REMARK   71  A    between atoms: _184  and  _185
REMARK   72  A    between atoms: _191  and  _193
REMARK   73  A    between atoms: _193  and  _194
REMARK   74  A    between atoms: _193  and  _196
REMARK   75  A    between atoms: _196  and  _197
REMARK   76  A    between atoms: _203  and  _205
REMARK   77  A    between atoms: _205  and  _206
REMARK   78  A    between atoms: _205  and  _208
REMARK   79  A    between atoms: _208  and  _209
REMARK   80  A    between atoms: _209  and  _210
REMARK   81  A    between atoms: _213  and  _215
REMARK   82  A    between atoms: _215  and  _216
REMARK   83  A    between atoms: _218  and  _220
REMARK   84  A    between atoms: _220  and  _221
REMARK   85  A    between atoms: _220  and  _223
REMARK   86  A    between atoms: _223  and  _224
REMARK   87  A    between atoms: _224  and  _225
REMARK   88  A    between atoms: _225  and  _226
REMARK   89  A    between atoms: _235  and  _237
REMARK   90  A    between atoms: _237  and  _238
REMARK   91  A    between atoms: _237  and  _240
REMARK   92  A    between atoms: _240  and  _241
REMARK   93  A    between atoms: _241  and  _242
REMARK   94  A    between atoms: _245  and  _247
REMARK   95  A    between atoms: _247  and  _248
REMARK   96  A    between atoms: _247  and  _250
REMARK   97  A    between atoms: _250  and  _251
REMARK   98  A    between atoms: _256  and  _258
REMARK   99  A    between atoms: _258  and  _259
REMARK  100  A    between atoms: _258  and  _261
REMARK  101  A    between atoms: _261  and  _262
REMARK  102  A    between atoms: _265  and  _267
REMARK  103  A    between atoms: _267  and  _268
REMARK  104  A    between atoms: _267  and  _270
REMARK  105  A    between atoms: _270  and  _271
REMARK  106  A    between atoms: _274  and  _276
REMARK  107  A    between atoms: _276  and  _277
REMARK  108  A    between atoms: _276  and  _279
REMARK  109  A    between atoms: _279  and  _280
REMARK  110  A    between atoms: _285  and  _287
REMARK  111  A    between atoms: _287  and  _288
REMARK  112  A    between atoms: _287  and  _290
REMARK  113  A    between atoms: _290  and  _291
REMARK  114  A    between atoms: _294  and  _296
REMARK  115  A    between atoms: _296  and  _297
REMARK  116  A    between atoms: _296  and  _299
REMARK  117  A    between atoms: _299  and  _300
REMARK  118  A    between atoms: _305  and  _307
REMARK  119  A    between atoms: _307  and  _308
REMARK  120  A    between atoms: _307  and  _310
REMARK  121  A    between atoms: _310  and  _311
REMARK  122  A    between atoms: _316  and  _318
REMARK  123  A    between atoms: _318  and  _319
REMARK  124  A    between atoms: _318  and  _321
REMARK  125  A    between atoms: _321  and  _322
REMARK  126  A    between atoms: _325  and  _327
REMARK  127  A    between atoms: _327  and  _328
REMARK  128  A    between atoms: _327  and  _330
REMARK  129  A    between atoms: _333  and  _335
REMARK  130  A    between atoms: _335  and  _336
REMARK  131  A    between atoms: _335  and  _338
REMARK  132  A    between atoms: _338  and  _339
REMARK  133  A    between atoms: _342  and  _344
REMARK  134  A    between atoms: _344  and  _345
REMARK  135  A    between atoms: _344  and  _347
REMARK  136  A    between atoms: _347  and  _348
REMARK  137  A    between atoms: _348  and  _349
REMARK  138  A    between atoms: _352  and  _354
REMARK  139  A    between atoms: _354  and  _355
REMARK  140  A    between atoms: _358  and  _360
REMARK  141  A    between atoms: _360  and  _361
REMARK  142  A    between atoms: _360  and  _363
REMARK  143  A    between atoms: _363  and  _364
REMARK  144  A    between atoms: _367  and  _369
REMARK  145  A    between atoms: _369  and  _370
REMARK  146  A    between atoms: _369  and  _372
REMARK  147  A    between atoms: _372  and  _373
REMARK  148  A    between atoms: _373  and  _374
REMARK  149  A    between atoms: _377  and  _379
REMARK  150  A    between atoms: _379  and  _380
REMARK  151  A    between atoms: _379  and  _382
REMARK  152  A    between atoms: _382  and  _383
REMARK  153  A    between atoms: _383  and  _384
REMARK  154  A    between atoms: _384  and  _385
REMARK  155  A    between atoms: _394  and  _396
REMARK  156  A    between atoms: _396  and  _397
REMARK  157  A    between atoms: _396  and  _399
REMARK  158  A    between atoms: _399  and  _400
REMARK  159  A    between atoms: _410  and  _412
REMARK  160  A    between atoms: _412  and  _413
REMARK  161  A    between atoms: _412  and  _415
REMARK  162  A    between atoms: _415  and  _416
REMARK  163  A    between atoms: _421  and  _423
REMARK  164  A    between atoms: _423  and  _424
REMARK  165  A    between atoms: _426  and  _428
REMARK  166  A    between atoms: _428  and  _429
REMARK  167  A    between atoms: _428  and  _431
REMARK  168  A    between atoms: _434  and  _436
REMARK  169  A    between atoms: _436  and  _437
REMARK  170  A    between atoms: _440  and  _442
REMARK  171  A    between atoms: _442  and  _443
REMARK  172  A    between atoms: _442  and  _445
REMARK  173  A    between atoms: _445  and  _446
REMARK  174  A    between atoms: _451  and  _453
REMARK  175  A    between atoms: _453  and  _454
REMARK  176  A    between atoms: _453  and  _456
REMARK  177  A    between atoms: _456  and  _457
REMARK  178  A    between atoms: _457  and  _458
REMARK  179  A    between atoms: _458  and  _459
REMARK  180  A    between atoms: _459  and  _460
REMARK  181  A    between atoms: _464  and  _466
REMARK  182  A    between atoms: _466  and  _467
REMARK  183  A    between atoms: _466  and  _469
REMARK  184  A    between atoms: _469  and  _470
REMARK  185  A    between atoms: _475  and  _477
REMARK  186  A    between atoms: _477  and  _478
REMARK  187  A    between atoms: _480  and  _482
REMARK  188  A    between atoms: _482  and  _483
REMARK  189  A    between atoms: _482  and  _485
REMARK  190  A    between atoms: _485  and  _486
REMARK  191  A    between atoms: _486  and  _487
REMARK  192  A    between atoms: _487  and  _488
REMARK  193  A    between atoms: _488  and  _489
REMARK  194  A    between atoms: _493  and  _495
REMARK  195  A    between atoms: _495  and  _496
REMARK  196  A    between atoms: _495  and  _498
REMARK  197  A    between atoms: _498  and  _499
REMARK  198  A    between atoms: _499  and  _500
REMARK  199  A    between atoms: _500  and  _501
REMARK  200  A    between atoms: _510  and  _512
REMARK  201  A    between atoms: _512  and  _513
REMARK  202  A    between atoms: _512  and  _515
REMARK  203  A    between atoms: _515  and  _516
REMARK  204  A    between atoms: _521  and  _522
REMARK  205  A    between atoms: _524  and  _526
REMARK  206  A    between atoms: _526  and  _527
REMARK  207  A    between atoms: _526  and  _529
REMARK  208  A    between atoms: _529  and  _530
REMARK  209  A    between atoms: _530  and  _531
REMARK  210  A    between atoms: _531  and  _532
REMARK  211  A    between atoms: _532  and  _533
REMARK  212  A    between atoms: _537  and  _539
REMARK  213  A    between atoms: _539  and  _540
REMARK  214  A    between atoms: _539  and  _542
REMARK  215  A    between atoms: _542  and  _543
REMARK  216  A    between atoms: _545  and  _547
REMARK  217  A    between atoms: _547  and  _548
REMARK  218  A    between atoms: _547  and  _550
REMARK  219  A    between atoms: _550  and  _551
REMARK  220  A    between atoms: _554  and  _556
REMARK  221  A    between atoms: _556  and  _557
REMARK  222  A    between atoms: _556  and  _559
REMARK  223  A    between atoms: _559  and  _560
REMARK  224  A    between atoms: _560  and  _561
REMARK  225  A    between atoms: _564  and  _566
REMARK  226  A    between atoms: _566  and  _567
REMARK  227  A    between atoms: _570  and  _572
REMARK  228  A    between atoms: _572  and  _573
REMARK  229  A    between atoms: _572  and  _575
REMARK  230  A    between atoms: _575  and  _576
REMARK  231  A    between atoms: _578  and  _580
REMARK  232  A    between atoms: _580  and  _581
REMARK  233  A    between atoms: _583  and  _585
REMARK  234  A    between atoms: _585  and  _586
REMARK  235  A    between atoms: _585  and  _588
REMARK  236  A    between atoms: _588  and  _589
REMARK  237  A    between atoms: _592  and  _594
REMARK  238  A    between atoms: _594  and  _595
REMARK  239  A    between atoms: _597  and  _599
REMARK  240  A    between atoms: _599  and  _600
REMARK  241  A    between atoms: _599  and  _602
REMARK  242  A    between atoms: _602  and  _603
REMARK  243  A    between atoms: _608  and  _610
REMARK  244  A    between atoms: _610  and  _611
REMARK  245  A    between atoms: _610  and  _613
REMARK  246  A    between atoms: _613  and  _614
REMARK  247  A    between atoms: _614  and  _615
REMARK  248  A    between atoms: _622  and  _623
REMARK  249  A    between atoms: _623  and  _639
REMARK  250  A    between atoms: _624  and  _626
REMARK  251  A    between atoms: _626  and  _627
REMARK  252  A    between atoms: _627  and  _628
REMARK  253  A    between atoms: _632  and  _634
REMARK  254  A    between atoms: _634  and  _635
REMARK  255  A    between atoms: _634  and  _642
REMARK  256  A    between atoms: _635  and  _636
REMARK  257  A    between atoms: _636  and  _637
REMARK  258  A    between atoms: _637  and  _638
REMARK  259  A    between atoms: _638  and  _639
REMARK  260  A    between atoms: _644  and  _646
REMARK  261  A    between atoms: _646  and  _647
REMARK  262  A    between atoms: _646  and  _649
REMARK  263  A    between atoms: _649  and  _650
REMARK  264  A    between atoms: _653  and  _655
REMARK  265  A    between atoms: _655  and  _656
REMARK  266  A    between atoms: _658  and  _660
REMARK  267  A    between atoms: _660  and  _661
REMARK  268  A    between atoms: _664  and  _666
REMARK  269  A    between atoms: _666  and  _667
REMARK  270  A    between atoms: _666  and  _669
REMARK  271  A    between atoms: _669  and  _670
REMARK  272  A    between atoms: _675  and  _676
REMARK                            x       y       z     vdW  Elec       q    Type
REMARK                         _______ _______ _______ _____ _____    ______ ____
ROOT
ATOM      1  C   GLY A   2      38.082  14.552  23.621  0.00  0.00    +0.243 C 
ATOM      2  O   GLY A   2      37.728  13.386  23.787  0.00  0.00    -0.273 OA
ATOM      3  N   VAL A   3      37.226  15.519  23.337  0.00  0.00    -0.297 N 
ATOM      4  H   VAL A   3      37.578  16.412  22.936  0.00  0.00    +0.150 HD
ENDROOT
BRANCH   1   5
ATOM      5  CA  GLY A   2      39.549  14.937  23.696  0.00  0.00    +0.176 C 
BRANCH   5   8
ATOM      6  C   ASN A   1      40.620  13.431  25.293  0.00  0.00    +0.239 C 
ATOM      7  O   ASN A   1      40.521  14.219  26.231  0.00  0.00    -0.274 OA
ATOM      8  N   GLY A   2      40.318  13.741  24.035  0.00  0.00    -0.296 N 
ATOM      9  H   GLY A   2      40.639  13.114  23.270  0.00  0.00    +0.150 HD
BRANCH   6  10
ATOM     10  CA  ASN A   1      41.115  12.011  25.509  0.00  0.00    +0.154 C 
BRANCH  10  11
ATOM     11  N   ASN A   1      42.118  11.848  26.554  0.00  0.00    -0.238 NA
ATOM     12  H   ASN A   1      41.952  12.230  27.507  0.00  0.00    +0.142 HD
ENDBRANCH  10  11
BRANCH  10  13
ATOM     13  CB  ASN A   1      39.922  11.039  25.683  0.00  0.00    +0.111 C 
BRANCH  13  14
ATOM     14  CG  ASN A   1      38.942  11.472  26.779  0.00  0.00    +0.221 C 
ATOM     15  OD1 ASN A   1      39.207  11.287  27.961  0.00  0.00    -0.275 OA
ATOM     16  ND2 ASN A   1      37.797  12.029  26.379  0.00  0.00    -0.329 N 
ATOM     17 HD21 ASN A   1      37.089  12.324  27.081  0.00  0.00    +0.145 HD
ATOM     18 HD22 ASN A   1      37.613  12.168  25.365  0.00  0.00    +0.145 HD
ENDBRANCH  13  14
ENDBRANCH  10  13
ENDBRANCH   6  10
ENDBRANCH   5   8
ENDBRANCH   1   5
BRANCH   3  19
ATOM     19  CA  VAL A   3      35.784  15.354  23.578  0.00  0.00    +0.149 C 
BRANCH  19  20
ATOM     20  C   VAL A   3      34.941  15.436  22.298  0.00  0.00    +0.241 C 
ATOM     21  O   VAL A   3      33.710  15.427  22.354  0.00  0.00    -0.273 OA
ATOM     22  N   ALA A   4      35.621  15.551  21.154  0.00  0.00    -0.298 N 
ATOM     23  H   ALA A   4      36.638  15.765  21.203  0.00  0.00    +0.150 HD
BRANCH  22  24
ATOM     24  CA  ALA A   4      35.002  15.390  19.826  0.00  0.00    +0.137 C 
ATOM     25  CB  ALA A   4      34.245  16.643  19.396  0.00  0.00    +0.030 C 
BRANCH  24  26
ATOM     26  C   ALA A   4      36.111  15.084  18.839  0.00  0.00    +0.227 C 
ATOM     27  O   ALA A   4      37.282  15.378  19.108  0.00  0.00    -0.286 OA
ENDBRANCH  24  26
ENDBRANCH  22  24
ENDBRANCH  19  20
BRANCH  19  28
ATOM     28  CB  VAL A   3      35.292  16.354  24.667  0.00  0.00    +0.027 C 
ATOM     29  CG2 VAL A   3      35.836  15.944  26.056  0.00  0.00    +0.002 C 
ATOM     30  CG1 VAL A   3      35.718  17.779  24.326  0.00  0.00    +0.002 C 
ENDBRANCH  19  28
ENDBRANCH   3  19
TORSDOF 11
REMARK  Name = ../refined-set-2016/3l7a/3l7a_pocket.pdb
REMARK  272 active torsions:
REMARK  status: ('A' for Active; 'I' for Inactive)
REMARK    1  A    between atoms: _1  and  _3
REMARK    2  A    between atoms: _3  and  _4
REMARK    3  A    between atoms: _3  and  _6
REMARK    4  A    between atoms: _6  and  _7
REMARK    5  A    between atoms: _12  and  _13
REMARK    6  A    between atoms: _15  and  _17
REMARK    7  A    between atoms: _17  and  _18
REMARK    8  A    between atoms: _17  and  _20
REMARK    9  A    between atoms: _20  and  _21
REMARK   10  A    between atoms: _24  and  _26
REMARK   11  A    between atoms: _26  and  _27
REMARK   12  A    between atoms: _26  and  _29
REMARK   13  A    between atoms: _29  and  _30
REMARK   14  A    between atoms: _30  and  _31
REMARK   15  A    between atoms: _34  and  _36
REMARK   16  A    between atoms: _36  and  _37
REMARK   17  A    between atoms: _36  and  _39
REMARK   18  A    between atoms: _39  and  _40
REMARK   19  A    between atoms: _45  and  _46
REMARK   20  A    between atoms: _48  and  _50
REMARK   21  A    between atoms: _50  and  _51
REMARK   22  A    between atoms: _50  and  _53
REMARK   23  A    between atoms: _53  and  _54
REMARK   24  A    between atoms: _59  and  _61
REMARK   25  A    between atoms: _61  and  _62
REMARK   26  A    between atoms: _64  and  _66
REMARK   27  A    between atoms: _66  and  _67
REMARK   28  A    between atoms: _69  and  _71
REMARK   29  A    between atoms: _71  and  _72
REMARK   30  A    between atoms: _71  and  _74
REMARK   31  A    between atoms: _74  and  _75
REMARK   32  A    between atoms: _78  and  _80
REMARK   33  A    between atoms: _80  and  _81
REMARK   34  A    between atoms: _83  and  _85
REMARK   35  A    between atoms: _85  and  _86
REMARK   36  A    between atoms: _85  and  _88
REMARK   37  A    between atoms: _88  and  _89
REMARK   38  A    between atoms: _89  and  _90
REMARK   39  A    between atoms: _90  and  _91
REMARK   40  A    between atoms: _100  and  _102
REMARK   41  A    between atoms: _102  and  _103
REMARK   42  A    between atoms: _102  and  _105
REMARK   43  A    between atoms: _105  and  _106
REMARK   44  A    between atoms: _109  and  _111
REMARK   45  A    between atoms: _111  and  _112
REMARK   46  A    between atoms: _115  and  _117
REMARK   47  A    between atoms: _117  and  _118
REMARK   48  A    between atoms: _117  and  _120
REMARK   49  A    between atoms: _120  and  _121
REMARK   50  A    between atoms: _127  and  _129
REMARK   51  A    between atoms: _129  and  _130
REMARK   52  A    between atoms: _129  and  _132
REMARK   53  A    between atoms: _132  and  _133
REMARK   54  A    between atoms: _138  and  _139
REMARK   55  A    between atoms: _142  and  _143
REMARK   56  A    between atoms: _148  and  _150
REMARK   57  A    between atoms: _150  and  _151
REMARK   58  A    between atoms: _150  and  _153
REMARK   59  A    between atoms: _153  and  _154
REMARK   60  A    between atoms: _159  and  _161
REMARK   61  A    between atoms: _161  and  _162
REMARK   62  A    between atoms: _161  and  _164
REMARK   63  A    between atoms: _164  and  _165
REMARK   64  A    between atoms: _168  and  _170
REMARK   65  A    between atoms: _170  and  _171
REMARK   66  A    between atoms: _170  and  _173
REMARK   67  A    between atoms: _173  and  _174
REMARK   68  A    between atoms: _179  and  _181
REMARK   69  A    between atoms: _181  and  _182
REMARK   70  A    between atoms: _181  and  _184
REMARK   71  A    between atoms: _184  and  _185
REMARK   72  A    between atoms: _191  and  _193
REMARK   73  A    between atoms: _193  and  _194
REMARK   74  A    between atoms: _193  and  _196
REMARK   75  A    between atoms: _196  and  _197
REMARK   76  A    between atoms: _203  and  _205
REMARK   77  A    between atoms: _205  and  _206
REMARK   78  A    between atoms: _205  and  _208
REMARK   79  A    between atoms: _208  and  _209
REMARK   80  A    between atoms: _209  and  _210
REMARK   81  A    between atoms: _213  and  _215
REMARK   82  A    between atoms: _215  and  _216
REMARK   83  A    between atoms: _218  and  _220
REMARK   84  A    between atoms: _220  and  _221
REMARK   85  A    between atoms: _220  and  _223
REMARK   86  A    between atoms: _223  and  _224
REMARK   87  A    between atoms: _224  and  _225
REMARK   88  A    between atoms: _225  and  _226
REMARK   89  A    between atoms: _235  and  _237
REMARK   90  A    between atoms: _237  and  _238
REMARK   91  A    between atoms: _237  and  _240
REMARK   92  A    between atoms: _240  and  _241
REMARK   93  A    between atoms: _241  and  _242
REMARK   94  A    between atoms: _245  and  _247
REMARK   95  A    between atoms: _247  and  _248
REMARK   96  A    between atoms: _247  and  _250
REMARK   97  A    between atoms: _250  and  _251
REMARK   98  A    between atoms: _256  and  _258
REMARK   99  A    between atoms: _258  and  _259
REMARK  100  A    between atoms: _258  and  _261
REMARK  101  A    between atoms: _261  and  _262
REMARK  102  A    between atoms: _265  and  _267
REMARK  103  A    between atoms: _267  and  _268
REMARK  104  A    between atoms: _267  and  _270
REMARK  105  A    between atoms: _270  and  _271
REMARK  106  A    between atoms: _274  and  _276
REMARK  107  A    between atoms: _276  and  _277
REMARK  108  A    between atoms: _276  and  _279
REMARK  109  A    between atoms: _279  and  _280
REMARK  110  A    between atoms: _285  and  _287
REMARK  111  A    between atoms: _287  and  _288
REMARK  112  A    between atoms: _287  and  _290
REMARK  113  A    between atoms: _290  and  _291
REMARK  114  A    between atoms: _294  and  _296
REMARK  115  A    between atoms: _296  and  _297
REMARK  116  A    between atoms: _296  and  _299
REMARK  117  A    between atoms: _299  and  _300
REMARK  118  A    between atoms: _305  and  _307
REMARK  119  A    between atoms: _307  and  _308
REMARK  120  A    between atoms: _307  and  _310
REMARK  121  A    between atoms: _310  and  _311
REMARK  122  A    between atoms: _316  and  _318
REMARK  123  A    between atoms: _318  and  _319
REMARK  124  A    between atoms: _318  and  _321
REMARK  125  A    between atoms: _321  and  _322
REMARK  126  A    between atoms: _325  and  _327
REMARK  127  A    between atoms: _327  and  _328
REMARK  128  A    between atoms: _327  and  _330
REMARK  129  A    between atoms: _333  and  _335
REMARK  130  A    between atoms: _335  and  _336
REMARK  131  A    between atoms: _335  and  _338
REMARK  132  A    between atoms: _338  and  _339
REMARK  133  A    between atoms: _342  and  _344
REMARK  134  A    between atoms: _344  and  _345
REMARK  135  A    between atoms: _344  and  _347
REMARK  136  A    between atoms: _347  and  _348
REMARK  137  A    between atoms: _348  and  _349
REMARK  138  A    between atoms: _352  and  _354
REMARK  139  A    between atoms: _354  and  _355
REMARK  140  A    between atoms: _358  and  _360
REMARK  141  A    between atoms: _360  and  _361
REMARK  142  A    between atoms: _360  and  _363
REMARK  143  A    between atoms: _363  and  _364
REMARK  144  A    between atoms: _367  and  _369
REMARK  145  A    between atoms: _369  and  _370
REMARK  146  A    between atoms: _369  and  _372
REMARK  147  A    between atoms: _372  and  _373
REMARK  148  A    between atoms: _373  and  _374
REMARK  149  A    between atoms: _377  and  _379
REMARK  150  A    between atoms: _379  and  _380
REMARK  151  A    between atoms: _379  and  _382
REMARK  152  A    between atoms: _382  and  _383
REMARK  153  A    between atoms: _383  and  _384
REMARK  154  A    between atoms: _384  and  _385
REMARK  155  A    between atoms: _394  and  _396
REMARK  156  A    between atoms: _396  and  _397
REMARK  157  A    between atoms: _396  and  _399
REMARK  158  A    between atoms: _399  and  _400
REMARK  159  A    between atoms: _410  and  _412
REMARK  160  A    between atoms: _412  and  _413
REMARK  161  A    between atoms: _412  and  _415
REMARK  162  A    between atoms: _415  and  _416
REMARK  163  A    between atoms: _421  and  _423
REMARK  164  A    between atoms: _423  and  _424
REMARK  165  A    between atoms: _426  and  _428
REMARK  166  A    between atoms: _428  and  _429
REMARK  167  A    between atoms: _428  and  _431
REMARK  168  A    between atoms: _434  and  _436
REMARK  169  A    between atoms: _436  and  _437
REMARK  170  A    between atoms: _440  and  _442
REMARK  171  A    between atoms: _442  and  _443
REMARK  172  A    between atoms: _442  and  _445
REMARK  173  A    between atoms: _445  and  _446
REMARK  174  A    between atoms: _451  and  _453
REMARK  175  A    between atoms: _453  and  _454
REMARK  176  A    between atoms: _453  and  _456
REMARK  177  A    between atoms: _456  and  _457
REMARK  178  A    between atoms: _457  and  _458
REMARK  179  A    between atoms: _458  and  _459
REMARK  180  A    between atoms: _459  and  _460
REMARK  181  A    between atoms: _464  and  _466
REMARK  182  A    between atoms: _466  and  _467
REMARK  183  A    between atoms: _466  and  _469
REMARK  184  A    between atoms: _469  and  _470
REMARK  185  A    between atoms: _475  and  _477
REMARK  186  A    between atoms: _477  and  _478
REMARK  187  A    between atoms: _480  and  _482
REMARK  188  A    between atoms: _482  and  _483
REMARK  189  A    between atoms: _482  and  _485
REMARK  190  A    between atoms: _485  and  _486
REMARK  191  A    between atoms: _486  and  _487
REMARK  192  A    between atoms: _487  and  _488
REMARK  193  A    between atoms: _488  and  _489
REMARK  194  A    between atoms: _493  and  _495
REMARK  195  A    between atoms: _495  and  _496
REMARK  196  A    between atoms: _495  and  _498
REMARK  197  A    between atoms: _498  and  _499
REMARK  198  A    between atoms: _499  and  _500
REMARK  199  A    between atoms: _500  and  _501
REMARK  200  A    between atoms: _510  and  _512
REMARK  201  A    between atoms: _512  and  _513
REMARK  202  A    between atoms: _512  and  _515
REMARK  203  A    between atoms: _515  and  _516
REMARK  204  A    between atoms: _521  and  _522
REMARK  205  A    between atoms: _524  and  _526
REMARK  206  A    between atoms: _526  and  _527
REMARK  207  A    between atoms: _526  and  _529
REMARK  208  A    between atoms: _529  and  _530
REMARK  209  A    between atoms: _530  and  _531
REMARK  210  A    between atoms: _531  and  _532
REMARK  211  A    between atoms: _532  and  _533
REMARK  212  A    between atoms: _537  and  _539
REMARK  213  A    between atoms: _539  and  _540
REMARK  214  A    between atoms: _539  and  _542
REMARK  215  A    between atoms: _542  and  _543
REMARK  216  A    between atoms: _545  and  _547
REMARK  217  A    between atoms: _547  and  _548
REMARK  218  A    between atoms: _547  and  _550
REMARK  219  A    between atoms: _550  and  _551
REMARK  220  A    between atoms: _554  and  _556
REMARK  221  A    between atoms: _556  and  _557
REMARK  222  A    between atoms: _556  and  _559
REMARK  223  A    between atoms: _559  and  _560
REMARK  224  A    between atoms: _560  and  _561
REMARK  225  A    between atoms: _564  and  _566
REMARK  226  A    between atoms: _566  and  _567
REMARK  227  A    between atoms: _570  and  _572
REMARK  228  A    between atoms: _572  and  _573
REMARK  229  A    between atoms: _572  and  _575
REMARK  230  A    between atoms: _575  and  _576
REMARK  231  A    between atoms: _578  and  _580
REMARK  232  A    between atoms: _580  and  _581
REMARK  233  A    between atoms: _583  and  _585
REMARK  234  A    between atoms: _585  and  _586
REMARK  235  A    between atoms: _585  and  _588
REMARK  236  A    between atoms: _588  and  _589
REMARK  237  A    between atoms: _592  and  _594
REMARK  238  A    between atoms: _594  and  _595
REMARK  239  A    between atoms: _597  and  _599
REMARK  240  A    between atoms: _599  and  _600
REMARK  241  A    between atoms: _599  and  _602
REMARK  242  A    between atoms: _602  and  _603
REMARK  243  A    between atoms: _608  and  _610
REMARK  244  A    between atoms: _610  and  _611
REMARK  245  A    between atoms: _610  and  _613
REMARK  246  A    between atoms: _613  and  _614
REMARK  247  A    between atoms: _614  and  _615
REMARK  248  A    between atoms: _622  and  _623
REMARK  249  A    between atoms: _623  and  _639
REMARK  250  A    between atoms: _624  and  _626
REMARK  251  A    between atoms: _626  and  _627
REMARK  252  A    between atoms: _627  and  _628
REMARK  253  A    between atoms: _632  and  _634
REMARK  254  A    between atoms: _634  and  _635
REMARK  255  A    between atoms: _634  and  _642
REMARK  256  A    between atoms: _635  and  _636
REMARK  257  A    between atoms: _636  and  _637
REMARK  258  A    between atoms: _637  and  _638
REMARK  259  A    between atoms: _638  and  _639
REMARK  260  A    between atoms: _644  and  _646
REMARK  261  A    between atoms: _646  and  _647
REMARK  262  A    between atoms: _646  and  _649
REMARK  263  A    between atoms: _649  and  _650
REMARK  264  A    between atoms: _653  and  _655
REMARK  265  A    between atoms: _655  and  _656
REMARK  266  A    between atoms: _658  and  _660
REMARK  267  A    between atoms: _660  and  _661
REMARK  268  A    between atoms: _664  and  _666
REMARK  269  A    between atoms: _666  and  _667
REMARK  270  A    between atoms: _666  and  _669
REMARK  271  A    between atoms: _669  and  _670
REMARK  272  A    between atoms: _675  and  _676
REMARK                            x       y       z     vdW  Elec       q    Type
REMARK                         _______ _______ _______ _____ _____    ______ ____
ROOT
ATOM      1  CB  HIS A   1      38.298  18.527  20.194  0.00  0.00    +0.072 C 
ENDROOT
BRANCH   1   2
ATOM      2  CG  HIS A   1      38.970  18.755  21.517  0.00  0.00    +0.082 A 
ATOM      3  CD2 HIS A   1      38.886  18.070  22.680  0.00  0.00    +0.115 A 
ATOM      4  NE2 HIS A   1      39.679  18.720  23.594  0.00  0.00    -0.221 NA
ATOM      5  CE1 HIS A   1      40.225  19.773  23.015  0.00  0.00    +0.199 A 
ATOM      6  ND1 HIS A   1      39.800  19.826  21.764  0.00  0.00    -0.227 NA
ENDBRANCH   1   2
BRANCH   1   7
ATOM      7  CA  HIS A   1      39.259  18.370  19.002  0.00  0.00    +0.139 C 
BRANCH   7   8
ATOM      8  N   HIS A   1      38.494  17.941  17.827  0.00  0.00    -0.239 NA
ATOM      9  H   HIS A   1      37.498  17.669  17.955  0.00  0.00    +0.142 HD
ENDBRANCH   7   8
BRANCH   7  10
ATOM     10  C   HIS A   1      40.378  17.378  19.300  0.00  0.00    +0.224 C 
ATOM     11  O   HIS A   1      41.536  17.777  19.506  0.00  0.00    -0.287 OA
ENDBRANCH   7  10
ENDBRANCH   1   7
TORSDOF 4
REMARK  Name = ../refined-set-2016/3l7a/3l7a_pocket.pdb
REMARK  272 active torsions:
REMARK  status: ('A' for Active; 'I' for Inactive)
REMARK    1  A    between atoms: _1  and  _3
REMARK    2  A    between atoms: _3  and  _4
REMARK    3  A    between atoms: _3  and  _6
REMARK    4  A    between atoms: _6  and  _7
REMARK    5  A    between atoms: _12  and  _13
REMARK    6  A    between atoms: _15  and  _17
REMARK    7  A    between atoms: _17  and  _18
REMARK    8  A    between atoms: _17  and  _20
REMARK    9  A    between atoms: _20  and  _21
REMARK   10  A    between atoms: _24  and  _26
REMARK   11  A    between atoms: _26  and  _27
REMARK   12  A    between atoms: _26  and  _29
REMARK   13  A    between atoms: _29  and  _30
REMARK   14  A    between atoms: _30  and  _31
REMARK   15  A    between atoms: _34  and  _36
REMARK   16  A    between atoms: _36  and  _37
REMARK   17  A    between atoms: _36  and  _39
REMARK   18  A    between atoms: _39  and  _40
REMARK   19  A    between atoms: _45  and  _46
REMARK   20  A    between atoms: _48  and  _50
REMARK   21  A    between atoms: _50  and  _51
REMARK   22  A    between atoms: _50  and  _53
REMARK   23  A    between atoms: _53  and  _54
REMARK   24  A    between atoms: _59  and  _61
REMARK   25  A    between atoms: _61  and  _62
REMARK   26  A    between atoms: _64  and  _66
REMARK   27  A    between atoms: _66  and  _67
REMARK   28  A    between atoms: _69  and  _71
REMARK   29  A    between atoms: _71  and  _72
REMARK   30  A    between atoms: _71  and  _74
REMARK   31  A    between atoms: _74  and  _75
REMARK   32  A    between atoms: _78  and  _80
REMARK   33  A    between atoms: _80  and  _81
REMARK   34  A    between atoms: _83  and  _85
REMARK   35  A    between atoms: _85  and  _86
REMARK   36  A    between atoms: _85  and  _88
REMARK   37  A    between atoms: _88  and  _89
REMARK   38  A    between atoms: _89  and  _90
REMARK   39  A    between atoms: _90  and  _91
REMARK   40  A    between atoms: _100  and  _102
REMARK   41  A    between atoms: _102  and  _103
REMARK   42  A    between atoms: _102  and  _105
REMARK   43  A    between atoms: _105  and  _106
REMARK   44  A    between atoms: _109  and  _111
REMARK   45  A    between atoms: _111  and  _112
REMARK   46  A    between atoms: _115  and  _117
REMARK   47  A    between atoms: _117  and  _118
REMARK   48  A    between atoms: _117  and  _120
REMARK   49  A    between atoms: _120  and  _121
REMARK   50  A    between atoms: _127  and  _129
REMARK   51  A    between atoms: _129  and  _130
REMARK   52  A    between atoms: _129  and  _132
REMARK   53  A    between atoms: _132  and  _133
REMARK   54  A    between atoms: _138  and  _139
REMARK   55  A    between atoms: _142  and  _143
REMARK   56  A    between atoms: _148  and  _150
REMARK   57  A    between atoms: _150  and  _151
REMARK   58  A    between atoms: _150  and  _153
REMARK   59  A    between atoms: _153  and  _154
REMARK   60  A    between atoms: _159  and  _161
REMARK   61  A    between atoms: _161  and  _162
REMARK   62  A    between atoms: _161  and  _164
REMARK   63  A    between atoms: _164  and  _165
REMARK   64  A    between atoms: _168  and  _170
REMARK   65  A    between atoms: _170  and  _171
REMARK   66  A    between atoms: _170  and  _173
REMARK   67  A    between atoms: _173  and  _174
REMARK   68  A    between atoms: _179  and  _181
REMARK   69  A    between atoms: _181  and  _182
REMARK   70  A    between atoms: _181  and  _184
REMARK   71  A    between atoms: _184  and  _185
REMARK   72  A    between atoms: _191  and  _193
REMARK   73  A    between atoms: _193  and  _194
REMARK   74  A    between atoms: _193  and  _196
REMARK   75  A    between atoms: _196  and  _197
REMARK   76  A    between atoms: _203  and  _205
REMARK   77  A    between atoms: _205  and  _206
REMARK   78  A    between atoms: _205  and  _208
REMARK   79  A    between atoms: _208  and  _209
REMARK   80  A    between atoms: _209  and  _210
REMARK   81  A    between atoms: _213  and  _215
REMARK   82  A    between atoms: _215  and  _216
REMARK   83  A    between atoms: _218  and  _220
REMARK   84  A    between atoms: _220  and  _221
REMARK   85  A    between atoms: _220  and  _223
REMARK   86  A    between atoms: _223  and  _224
REMARK   87  A    between atoms: _224  and  _225
REMARK   88  A    between atoms: _225  and  _226
REMARK   89  A    between atoms: _235  and  _237
REMARK   90  A    between atoms: _237  and  _238
REMARK   91  A    between atoms: _237  and  _240
REMARK   92  A    between atoms: _240  and  _241
REMARK   93  A    between atoms: _241  and  _242
REMARK   94  A    between atoms: _245  and  _247
REMARK   95  A    between atoms: _247  and  _248
REMARK   96  A    between atoms: _247  and  _250
REMARK   97  A    between atoms: _250  and  _251
REMARK   98  A    between atoms: _256  and  _258
REMARK   99  A    between atoms: _258  and  _259
REMARK  100  A    between atoms: _258  and  _261
REMARK  101  A    between atoms: _261  and  _262
REMARK  102  A    between atoms: _265  and  _267
REMARK  103  A    between atoms: _267  and  _268
REMARK  104  A    between atoms: _267  and  _270
REMARK  105  A    between atoms: _270  and  _271
REMARK  106  A    between atoms: _274  and  _276
REMARK  107  A    between atoms: _276  and  _277
REMARK  108  A    between atoms: _276  and  _279
REMARK  109  A    between atoms: _279  and  _280
REMARK  110  A    between atoms: _285  and  _287
REMARK  111  A    between atoms: _287  and  _288
REMARK  112  A    between atoms: _287  and  _290
REMARK  113  A    between atoms: _290  and  _291
REMARK  114  A    between atoms: _294  and  _296
REMARK  115  A    between atoms: _296  and  _297
REMARK  116  A    between atoms: _296  and  _299
REMARK  117  A    between atoms: _299  and  _300
REMARK  118  A    between atoms: _305  and  _307
REMARK  119  A    between atoms: _307  and  _308
REMARK  120  A    between atoms: _307  and  _310
REMARK  121  A    between atoms: _310  and  _311
REMARK  122  A    between atoms: _316  and  _318
REMARK  123  A    between atoms: _318  and  _319
REMARK  124  A    between atoms: _318  and  _321
REMARK  125  A    between atoms: _321  and  _322
REMARK  126  A    between atoms: _325  and  _327
REMARK  127  A    between atoms: _327  and  _328
REMARK  128  A    between atoms: _327  and  _330
REMARK  129  A    between atoms: _333  and  _335
REMARK  130  A    between atoms: _335  and  _336
REMARK  131  A    between atoms: _335  and  _338
REMARK  132  A    between atoms: _338  and  _339
REMARK  133  A    between atoms: _342  and  _344
REMARK  134  A    between atoms: _344  and  _345
REMARK  135  A    between atoms: _344  and  _347
REMARK  136  A    between atoms: _347  and  _348
REMARK  137  A    between atoms: _348  and  _349
REMARK  138  A    between atoms: _352  and  _354
REMARK  139  A    between atoms: _354  and  _355
REMARK  140  A    between atoms: _358  and  _360
REMARK  141  A    between atoms: _360  and  _361
REMARK  142  A    between atoms: _360  and  _363
REMARK  143  A    between atoms: _363  and  _364
REMARK  144  A    between atoms: _367  and  _369
REMARK  145  A    between atoms: _369  and  _370
REMARK  146  A    between atoms: _369  and  _372
REMARK  147  A    between atoms: _372  and  _373
REMARK  148  A    between atoms: _373  and  _374
REMARK  149  A    between atoms: _377  and  _379
REMARK  150  A    between atoms: _379  and  _380
REMARK  151  A    between atoms: _379  and  _382
REMARK  152  A    between atoms: _382  and  _383
REMARK  153  A    between atoms: _383  and  _384
REMARK  154  A    between atoms: _384  and  _385
REMARK  155  A    between atoms: _394  and  _396
REMARK  156  A    between atoms: _396  and  _397
REMARK  157  A    between atoms: _396  and  _399
REMARK  158  A    between atoms: _399  and  _400
REMARK  159  A    between atoms: _410  and  _412
REMARK  160  A    between atoms: _412  and  _413
REMARK  161  A    between atoms: _412  and  _415
REMARK  162  A    between atoms: _415  and  _416
REMARK  163  A    between atoms: _421  and  _423
REMARK  164  A    between atoms: _423  and  _424
REMARK  165  A    between atoms: _426  and  _428
REMARK  166  A    between atoms: _428  and  _429
REMARK  167  A    between atoms: _428  and  _431
REMARK  168  A    between atoms: _434  and  _436
REMARK  169  A    between atoms: _436  and  _437
REMARK  170  A    between atoms: _440  and  _442
REMARK  171  A    between atoms: _442  and  _443
REMARK  172  A    between atoms: _442  and  _445
REMARK  173  A    between atoms: _445  and  _446
REMARK  174  A    between atoms: _451  and  _453
REMARK  175  A    between atoms: _453  and  _454
REMARK  176  A    between atoms: _453  and  _456
REMARK  177  A    between atoms: _456  and  _457
REMARK  178  A    between atoms: _457  and  _458
REMARK  179  A    between atoms: _458  and  _459
REMARK  180  A    between atoms: _459  and  _460
REMARK  181  A    between atoms: _464  and  _466
REMARK  182  A    between atoms: _466  and  _467
REMARK  183  A    between atoms: _466  and  _469
REMARK  184  A    between atoms: _469  and  _470
REMARK  185  A    between atoms: _475  and  _477
REMARK  186  A    between atoms: _477  and  _478
REMARK  187  A    between atoms: _480  and  _482
REMARK  188  A    between atoms: _482  and  _483
REMARK  189  A    between atoms: _482  and  _485
REMARK  190  A    between atoms: _485  and  _486
REMARK  191  A    between atoms: _486  and  _487
REMARK  192  A    between atoms: _487  and  _488
REMARK  193  A    between atoms: _488  and  _489
REMARK  194  A    between atoms: _493  and  _495
REMARK  195  A    between atoms: _495  and  _496
REMARK  196  A    between atoms: _495  and  _498
REMARK  197  A    between atoms: _498  and  _499
REMARK  198  A    between atoms: _499  and  _500
REMARK  199  A    between atoms: _500  and  _501
REMARK  200  A    between atoms: _510  and  _512
REMARK  201  A    between atoms: _512  and  _513
REMARK  202  A    between atoms: _512  and  _515
REMARK  203  A    between atoms: _515  and  _516
REMARK  204  A    between atoms: _521  and  _522
REMARK  205  A    between atoms: _524  and  _526
REMARK  206  A    between atoms: _526  and  _527
REMARK  207  A    between atoms: _526  and  _529
REMARK  208  A    between atoms: _529  and  _530
REMARK  209  A    between atoms: _530  and  _531
REMARK  210  A    between atoms: _531  and  _532
REMARK  211  A    between atoms: _532  and  _533
REMARK  212  A    between atoms: _537  and  _539
REMARK  213  A    between atoms: _539  and  _540
REMARK  214  A    between atoms: _539  and  _542
REMARK  215  A    between atoms: _542  and  _543
REMARK  216  A    between atoms: _545  and  _547
REMARK  217  A    between atoms: _547  and  _548
REMARK  218  A    between atoms: _547  and  _550
REMARK  219  A    between atoms: _550  and  _551
REMARK  220  A    between atoms: _554  and  _556
REMARK  221  A    between atoms: _556  and  _557
REMARK  222  A    between atoms: _556  and  _559
REMARK  223  A    between atoms: _559  and  _560
REMARK  224  A    between atoms: _560  and  _561
REMARK  225  A    between atoms: _564  and  _566
REMARK  226  A    between atoms: _566  and  _567
REMARK  227  A    between atoms: _570  and  _572
REMARK  228  A    between atoms: _572  and  _573
REMARK  229  A    between atoms: _572  and  _575
REMARK  230  A    between atoms: _575  and  _576
REMARK  231  A    between atoms: _578  and  _580
REMARK  232  A    between atoms: _580  and  _581
REMARK  233  A    between atoms: _583  and  _585
REMARK  234  A    between atoms: _585  and  _586
REMARK  235  A    between atoms: _585  and  _588
REMARK  236  A    between atoms: _588  and  _589
REMARK  237  A    between atoms: _592  and  _594
REMARK  238  A    between atoms: _594  and  _595
REMARK  239  A    between atoms: _597  and  _599
REMARK  240  A    between atoms: _599  and  _600
REMARK  241  A    between atoms: _599  and  _602
REMARK  242  A    between atoms: _602  and  _603
REMARK  243  A    between atoms: _608  and  _610
REMARK  244  A    between atoms: _610  and  _611
REMARK  245  A    between atoms: _610  and  _613
REMARK  246  A    between atoms: _613  and  _614
REMARK  247  A    between atoms: _614  and  _615
REMARK  248  A    between atoms: _622  and  _623
REMARK  249  A    between atoms: _623  and  _639
REMARK  250  A    between atoms: _624  and  _626
REMARK  251  A    between atoms: _626  and  _627
REMARK  252  A    between atoms: _627  and  _628
REMARK  253  A    between atoms: _632  and  _634
REMARK  254  A    between atoms: _634  and  _635
REMARK  255  A    between atoms: _634  and  _642
REMARK  256  A    between atoms: _635  and  _636
REMARK  257  A    between atoms: _636  and  _637
REMARK  258  A    between atoms: _637  and  _638
REMARK  259  A    between atoms: _638  and  _639
REMARK  260  A    between atoms: _644  and  _646
REMARK  261  A    between atoms: _646  and  _647
REMARK  262  A    between atoms: _646  and  _649
REMARK  263  A    between atoms: _649  and  _650
REMARK  264  A    between atoms: _653  and  _655
REMARK  265  A    between atoms: _655  and  _656
REMARK  266  A    between atoms: _658  and  _660
REMARK  267  A    between atoms: _660  and  _661
REMARK  268  A    between atoms: _664  and  _666
REMARK  269  A    between atoms: _666  and  _667
REMARK  270  A    between atoms: _666  and  _669
REMARK  271  A    between atoms: _669  and  _670
REMARK  272  A    between atoms: _675  and  _676
REMARK                            x       y       z     vdW  Elec       q    Type
REMARK                         _______ _______ _______ _____ _____    ______ ____
ROOT
ATOM      1  CG  LYS A   1      36.479   8.655  25.068  0.00  0.00    -0.000 C 
ENDROOT
BRANCH   1   2
ATOM      2  CB  LYS A   1      35.563   9.832  24.736  0.00  0.00    +0.025 C 
BRANCH   2   3
ATOM      3  CA  LYS A   1      35.468  10.159  23.234  0.00  0.00    +0.133 C 
BRANCH   3   4
ATOM      4  N   LYS A   1      36.757  10.586  22.691  0.00  0.00    -0.239 NA
ATOM      5  H   LYS A   1      37.058  11.570  22.840  0.00  0.00    +0.142 HD
ENDBRANCH   3   4
BRANCH   3   6
ATOM      6  C   LYS A   1      34.509  11.311  23.011  0.00  0.00    +0.224 C 
ATOM      7  O   LYS A   1      34.462  12.245  23.803  0.00  0.00    -0.287 OA
ENDBRANCH   3   6
ENDBRANCH   2   3
ENDBRANCH   1   2
BRANCH   1   8
ATOM      8  CD  LYS A   1      35.875   7.321  24.625  0.00  0.00    -0.024 C 
BRANCH   8   9
ATOM      9  CE  LYS A   1      36.884   6.185  24.727  0.00  0.00    -0.086 C 
BRANCH   9  10
ATOM     10  NZ  LYS A   1      37.867   6.166  23.581  0.00  0.00    +0.380 N 
ATOM     11  HZ1 LYS A   1      38.527   5.372  23.705  0.00  0.00    -0.089 HD
ATOM     12  HZ2 LYS A   1      38.397   7.061  23.566  0.00  0.00    -0.089 HD
ATOM     13  HZ3 LYS A   1      37.351   6.052  22.685  0.00  0.00    -0.089 HD
ENDBRANCH   9  10
ENDBRANCH   8   9
ENDBRANCH   1   8
TORSDOF 7
REMARK  Name = ../refined-set-2016/3l7a/3l7a_pocket.pdb
REMARK  272 active torsions:
REMARK  status: ('A' for Active; 'I' for Inactive)
REMARK    1  A    between atoms: _1  and  _3
REMARK    2  A    between atoms: _3  and  _4
REMARK    3  A    between atoms: _3  and  _6
REMARK    4  A    between atoms: _6  and  _7
REMARK    5  A    between atoms: _12  and  _13
REMARK    6  A    between atoms: _15  and  _17
REMARK    7  A    between atoms: _17  and  _18
REMARK    8  A    between atoms: _17  and  _20
REMARK    9  A    between atoms: _20  and  _21
REMARK   10  A    between atoms: _24  and  _26
REMARK   11  A    between atoms: _26  and  _27
REMARK   12  A    between atoms: _26  and  _29
REMARK   13  A    between atoms: _29  and  _30
REMARK   14  A    between atoms: _30  and  _31
REMARK   15  A    between atoms: _34  and  _36
REMARK   16  A    between atoms: _36  and  _37
REMARK   17  A    between atoms: _36  and  _39
REMARK   18  A    between atoms: _39  and  _40
REMARK   19  A    between atoms: _45  and  _46
REMARK   20  A    between atoms: _48  and  _50
REMARK   21  A    between atoms: _50  and  _51
REMARK   22  A    between atoms: _50  and  _53
REMARK   23  A    between atoms: _53  and  _54
REMARK   24  A    between atoms: _59  and  _61
REMARK   25  A    between atoms: _61  and  _62
REMARK   26  A    between atoms: _64  and  _66
REMARK   27  A    between atoms: _66  and  _67
REMARK   28  A    between atoms: _69  and  _71
REMARK   29  A    between atoms: _71  and  _72
REMARK   30  A    between atoms: _71  and  _74
REMARK   31  A    between atoms: _74  and  _75
REMARK   32  A    between atoms: _78  and  _80
REMARK   33  A    between atoms: _80  and  _81
REMARK   34  A    between atoms: _83  and  _85
REMARK   35  A    between atoms: _85  and  _86
REMARK   36  A    between atoms: _85  and  _88
REMARK   37  A    between atoms: _88  and  _89
REMARK   38  A    between atoms: _89  and  _90
REMARK   39  A    between atoms: _90  and  _91
REMARK   40  A    between atoms: _100  and  _102
REMARK   41  A    between atoms: _102  and  _103
REMARK   42  A    between atoms: _102  and  _105
REMARK   43  A    between atoms: _105  and  _106
REMARK   44  A    between atoms: _109  and  _111
REMARK   45  A    between atoms: _111  and  _112
REMARK   46  A    between atoms: _115  and  _117
REMARK   47  A    between atoms: _117  and  _118
REMARK   48  A    between atoms: _117  and  _120
REMARK   49  A    between atoms: _120  and  _121
REMARK   50  A    between atoms: _127  and  _129
REMARK   51  A    between atoms: _129  and  _130
REMARK   52  A    between atoms: _129  and  _132
REMARK   53  A    between atoms: _132  and  _133
REMARK   54  A    between atoms: _138  and  _139
REMARK   55  A    between atoms: _142  and  _143
REMARK   56  A    between atoms: _148  and  _150
REMARK   57  A    between atoms: _150  and  _151
REMARK   58  A    between atoms: _150  and  _153
REMARK   59  A    between atoms: _153  and  _154
REMARK   60  A    between atoms: _159  and  _161
REMARK   61  A    between atoms: _161  and  _162
REMARK   62  A    between atoms: _161  and  _164
REMARK   63  A    between atoms: _164  and  _165
REMARK   64  A    between atoms: _168  and  _170
REMARK   65  A    between atoms: _170  and  _171
REMARK   66  A    between atoms: _170  and  _173
REMARK   67  A    between atoms: _173  and  _174
REMARK   68  A    between atoms: _179  and  _181
REMARK   69  A    between atoms: _181  and  _182
REMARK   70  A    between atoms: _181  and  _184
REMARK   71  A    between atoms: _184  and  _185
REMARK   72  A    between atoms: _191  and  _193
REMARK   73  A    between atoms: _193  and  _194
REMARK   74  A    between atoms: _193  and  _196
REMARK   75  A    between atoms: _196  and  _197
REMARK   76  A    between atoms: _203  and  _205
REMARK   77  A    between atoms: _205  and  _206
REMARK   78  A    between atoms: _205  and  _208
REMARK   79  A    between atoms: _208  and  _209
REMARK   80  A    between atoms: _209  and  _210
REMARK   81  A    between atoms: _213  and  _215
REMARK   82  A    between atoms: _215  and  _216
REMARK   83  A    between atoms: _218  and  _220
REMARK   84  A    between atoms: _220  and  _221
REMARK   85  A    between atoms: _220  and  _223
REMARK   86  A    between atoms: _223  and  _224
REMARK   87  A    between atoms: _224  and  _225
REMARK   88  A    between atoms: _225  and  _226
REMARK   89  A    between atoms: _235  and  _237
REMARK   90  A    between atoms: _237  and  _238
REMARK   91  A    between atoms: _237  and  _240
REMARK   92  A    between atoms: _240  and  _241
REMARK   93  A    between atoms: _241  and  _242
REMARK   94  A    between atoms: _245  and  _247
REMARK   95  A    between atoms: _247  and  _248
REMARK   96  A    between atoms: _247  and  _250
REMARK   97  A    between atoms: _250  and  _251
REMARK   98  A    between atoms: _256  and  _258
REMARK   99  A    between atoms: _258  and  _259
REMARK  100  A    between atoms: _258  and  _261
REMARK  101  A    between atoms: _261  and  _262
REMARK  102  A    between atoms: _265  and  _267
REMARK  103  A    between atoms: _267  and  _268
REMARK  104  A    between atoms: _267  and  _270
REMARK  105  A    between atoms: _270  and  _271
REMARK  106  A    between atoms: _274  and  _276
REMARK  107  A    between atoms: _276  and  _277
REMARK  108  A    between atoms: _276  and  _279
REMARK  109  A    between atoms: _279  and  _280
REMARK  110  A    between atoms: _285  and  _287
REMARK  111  A    between atoms: _287  and  _288
REMARK  112  A    between atoms: _287  and  _290
REMARK  113  A    between atoms: _290  and  _291
REMARK  114  A    between atoms: _294  and  _296
REMARK  115  A    between atoms: _296  and  _297
REMARK  116  A    between atoms: _296  and  _299
REMARK  117  A    between atoms: _299  and  _300
REMARK  118  A    between atoms: _305  and  _307
REMARK  119  A    between atoms: _307  and  _308
REMARK  120  A    between atoms: _307  and  _310
REMARK  121  A    between atoms: _310  and  _311
REMARK  122  A    between atoms: _316  and  _318
REMARK  123  A    between atoms: _318  and  _319
REMARK  124  A    between atoms: _318  and  _321
REMARK  125  A    between atoms: _321  and  _322
REMARK  126  A    between atoms: _325  and  _327
REMARK  127  A    between atoms: _327  and  _328
REMARK  128  A    between atoms: _327  and  _330
REMARK  129  A    between atoms: _333  and  _335
REMARK  130  A    between atoms: _335  and  _336
REMARK  131  A    between atoms: _335  and  _338
REMARK  132  A    between atoms: _338  and  _339
REMARK  133  A    between atoms: _342  and  _344
REMARK  134  A    between atoms: _344  and  _345
REMARK  135  A    between atoms: _344  and  _347
REMARK  136  A    between atoms: _347  and  _348
REMARK  137  A    between atoms: _348  and  _349
REMARK  138  A    between atoms: _352  and  _354
REMARK  139  A    between atoms: _354  and  _355
REMARK  140  A    between atoms: _358  and  _360
REMARK  141  A    between atoms: _360  and  _361
REMARK  142  A    between atoms: _360  and  _363
REMARK  143  A    between atoms: _363  and  _364
REMARK  144  A    between atoms: _367  and  _369
REMARK  145  A    between atoms: _369  and  _370
REMARK  146  A    between atoms: _369  and  _372
REMARK  147  A    between atoms: _372  and  _373
REMARK  148  A    between atoms: _373  and  _374
REMARK  149  A    between atoms: _377  and  _379
REMARK  150  A    between atoms: _379  and  _380
REMARK  151  A    between atoms: _379  and  _382
REMARK  152  A    between atoms: _382  and  _383
REMARK  153  A    between atoms: _383  and  _384
REMARK  154  A    between atoms: _384  and  _385
REMARK  155  A    between atoms: _394  and  _396
REMARK  156  A    between atoms: _396  and  _397
REMARK  157  A    between atoms: _396  and  _399
REMARK  158  A    between atoms: _399  and  _400
REMARK  159  A    between atoms: _410  and  _412
REMARK  160  A    between atoms: _412  and  _413
REMARK  161  A    between atoms: _412  and  _415
REMARK  162  A    between atoms: _415  and  _416
REMARK  163  A    between atoms: _421  and  _423
REMARK  164  A    between atoms: _423  and  _424
REMARK  165  A    between atoms: _426  and  _428
REMARK  166  A    between atoms: _428  and  _429
REMARK  167  A    between atoms: _428  and  _431
REMARK  168  A    between atoms: _434  and  _436
REMARK  169  A    between atoms: _436  and  _437
REMARK  170  A    between atoms: _440  and  _442
REMARK  171  A    between atoms: _442  and  _443
REMARK  172  A    between atoms: _442  and  _445
REMARK  173  A    between atoms: _445  and  _446
REMARK  174  A    between atoms: _451  and  _453
REMARK  175  A    between atoms: _453  and  _454
REMARK  176  A    between atoms: _453  and  _456
REMARK  177  A    between atoms: _456  and  _457
REMARK  178  A    between atoms: _457  and  _458
REMARK  179  A    between atoms: _458  and  _459
REMARK  180  A    between atoms: _459  and  _460
REMARK  181  A    between atoms: _464  and  _466
REMARK  182  A    between atoms: _466  and  _467
REMARK  183  A    between atoms: _466  and  _469
REMARK  184  A    between atoms: _469  and  _470
REMARK  185  A    between atoms: _475  and  _477
REMARK  186  A    between atoms: _477  and  _478
REMARK  187  A    between atoms: _480  and  _482
REMARK  188  A    between atoms: _482  and  _483
REMARK  189  A    between atoms: _482  and  _485
REMARK  190  A    between atoms: _485  and  _486
REMARK  191  A    between atoms: _486  and  _487
REMARK  192  A    between atoms: _487  and  _488
REMARK  193  A    between atoms: _488  and  _489
REMARK  194  A    between atoms: _493  and  _495
REMARK  195  A    between atoms: _495  and  _496
REMARK  196  A    between atoms: _495  and  _498
REMARK  197  A    between atoms: _498  and  _499
REMARK  198  A    between atoms: _499  and  _500
REMARK  199  A    between atoms: _500  and  _501
REMARK  200  A    between atoms: _510  and  _512
REMARK  201  A    between atoms: _512  and  _513
REMARK  202  A    between atoms: _512  and  _515
REMARK  203  A    between atoms: _515  and  _516
REMARK  204  A    between atoms: _521  and  _522
REMARK  205  A    between atoms: _524  and  _526
REMARK  206  A    between atoms: _526  and  _527
REMARK  207  A    between atoms: _526  and  _529
REMARK  208  A    between atoms: _529  and  _530
REMARK  209  A    between atoms: _530  and  _531
REMARK  210  A    between atoms: _531  and  _532
REMARK  211  A    between atoms: _532  and  _533
REMARK  212  A    between atoms: _537  and  _539
REMARK  213  A    between atoms: _539  and  _540
REMARK  214  A    between atoms: _539  and  _542
REMARK  215  A    between atoms: _542  and  _543
REMARK  216  A    between atoms: _545  and  _547
REMARK  217  A    between atoms: _547  and  _548
REMARK  218  A    between atoms: _547  and  _550
REMARK  219  A    between atoms: _550  and  _551
REMARK  220  A    between atoms: _554  and  _556
REMARK  221  A    between atoms: _556  and  _557
REMARK  222  A    between atoms: _556  and  _559
REMARK  223  A    between atoms: _559  and  _560
REMARK  224  A    between atoms: _560  and  _561
REMARK  225  A    between atoms: _564  and  _566
REMARK  226  A    between atoms: _566  and  _567
REMARK  227  A    between atoms: _570  and  _572
REMARK  228  A    between atoms: _572  and  _573
REMARK  229  A    between atoms: _572  and  _575
REMARK  230  A    between atoms: _575  and  _576
REMARK  231  A    between atoms: _578  and  _580
REMARK  232  A    between atoms: _580  and  _581
REMARK  233  A    between atoms: _583  and  _585
REMARK  234  A    between atoms: _585  and  _586
REMARK  235  A    between atoms: _585  and  _588
REMARK  236  A    between atoms: _588  and  _589
REMARK  237  A    between atoms: _592  and  _594
REMARK  238  A    between atoms: _594  and  _595
REMARK  239  A    between atoms: _597  and  _599
REMARK  240  A    between atoms: _599  and  _600
REMARK  241  A    between atoms: _599  and  _602
REMARK  242  A    between atoms: _602  and  _603
REMARK  243  A    between atoms: _608  and  _610
REMARK  244  A    between atoms: _610  and  _611
REMARK  245  A    between atoms: _610  and  _613
REMARK  246  A    between atoms: _613  and  _614
REMARK  247  A    between atoms: _614  and  _615
REMARK  248  A    between atoms: _622  and  _623
REMARK  249  A    between atoms: _623  and  _639
REMARK  250  A    between atoms: _624  and  _626
REMARK  251  A    between atoms: _626  and  _627
REMARK  252  A    between atoms: _627  and  _628
REMARK  253  A    between atoms: _632  and  _634
REMARK  254  A    between atoms: _634  and  _635
REMARK  255  A    between atoms: _634  and  _642
REMARK  256  A    between atoms: _635  and  _636
REMARK  257  A    between atoms: _636  and  _637
REMARK  258  A    between atoms: _637  and  _638
REMARK  259  A    between atoms: _638  and  _639
REMARK  260  A    between atoms: _644  and  _646
REMARK  261  A    between atoms: _646  and  _647
REMARK  262  A    between atoms: _646  and  _649
REMARK  263  A    between atoms: _649  and  _650
REMARK  264  A    between atoms: _653  and  _655
REMARK  265  A    between atoms: _655  and  _656
REMARK  266  A    between atoms: _658  and  _660
REMARK  267  A    between atoms: _660  and  _661
REMARK  268  A    between atoms: _664  and  _666
REMARK  269  A    between atoms: _666  and  _667
REMARK  270  A    between atoms: _666  and  _669
REMARK  271  A    between atoms: _669  and  _670
REMARK  272  A    between atoms: _675  and  _676
REMARK                            x       y       z     vdW  Elec       q    Type
REMARK                         _______ _______ _______ _____ _____    ______ ____
ROOT
ATOM      1  CA  ASN A   1      30.571  13.965  24.196  0.00  0.00    +0.154 C 
ENDROOT
BRANCH   1   2
ATOM      2  C   ASN A   1      29.156  13.496  23.846  0.00  0.00    +0.239 C 
ATOM      3  N   GLY A   2      28.296  13.461  24.852  0.00  0.00    -0.297 N 
ATOM      4  H   GLY A   2      28.634  13.672  25.813  0.00  0.00    +0.150 HD
ATOM      5  O   ASN A   1      28.854  13.174  22.697  0.00  0.00    -0.274 OA
BRANCH   3   6
ATOM      6  CA  GLY A   2      26.896  13.137  24.653  0.00  0.00    +0.163 C 
BRANCH   6   7
ATOM      7  C   GLY A   2      26.083  13.752  25.773  0.00  0.00    +0.229 C 
ATOM      8  O   GLY A   2      26.641  14.349  26.696  0.00  0.00    -0.286 OA
ENDBRANCH   6   7
ENDBRANCH   3   6
ENDBRANCH   1   2
BRANCH   1   9
ATOM      9  N   ASN A   1      31.545  13.664  23.141  0.00  0.00    -0.238 NA
ATOM     10  H   ASN A   1      32.072  14.455  22.719  0.00  0.00    +0.142 HD
ENDBRANCH   1   9
BRANCH   1  11
ATOM     11  CB  ASN A   1      30.546  15.478  24.499  0.00  0.00    +0.111 C 
BRANCH  11  12
ATOM     12  CG  ASN A   1      31.700  15.933  25.414  0.00  0.00    +0.221 C 
ATOM     13  ND2 ASN A   1      32.404  14.987  25.994  0.00  0.00    -0.329 N 
ATOM     14 HD21 ASN A   1      33.184  15.238  26.635  0.00  0.00    +0.145 HD
ATOM     15 HD22 ASN A   1      32.181  13.988  25.812  0.00  0.00    +0.145 HD
ATOM     16  OD1 ASN A   1      31.927  17.147  25.599  0.00  0.00    -0.275 OA
ENDBRANCH  11  12
ENDBRANCH   1  11
TORSDOF 6
REMARK  Name = ../refined-set-2016/3l7a/3l7a_pocket.pdb
REMARK  272 active torsions:
REMARK  status: ('A' for Active; 'I' for Inactive)
REMARK    1  A    between atoms: _1  and  _3
REMARK    2  A    between atoms: _3  and  _4
REMARK    3  A    between atoms: _3  and  _6
REMARK    4  A    between atoms: _6  and  _7
REMARK    5  A    between atoms: _12  and  _13
REMARK    6  A    between atoms: _15  and  _17
REMARK    7  A    between atoms: _17  and  _18
REMARK    8  A    between atoms: _17  and  _20
REMARK    9  A    between atoms: _20  and  _21
REMARK   10  A    between atoms: _24  and  _26
REMARK   11  A    between atoms: _26  and  _27
REMARK   12  A    between atoms: _26  and  _29
REMARK   13  A    between atoms: _29  and  _30
REMARK   14  A    between atoms: _30  and  _31
REMARK   15  A    between atoms: _34  and  _36
REMARK   16  A    between atoms: _36  and  _37
REMARK   17  A    between atoms: _36  and  _39
REMARK   18  A    between atoms: _39  and  _40
REMARK   19  A    between atoms: _45  and  _46
REMARK   20  A    between atoms: _48  and  _50
REMARK   21  A    between atoms: _50  and  _51
REMARK   22  A    between atoms: _50  and  _53
REMARK   23  A    between atoms: _53  and  _54
REMARK   24  A    between atoms: _59  and  _61
REMARK   25  A    between atoms: _61  and  _62
REMARK   26  A    between atoms: _64  and  _66
REMARK   27  A    between atoms: _66  and  _67
REMARK   28  A    between atoms: _69  and  _71
REMARK   29  A    between atoms: _71  and  _72
REMARK   30  A    between atoms: _71  and  _74
REMARK   31  A    between atoms: _74  and  _75
REMARK   32  A    between atoms: _78  and  _80
REMARK   33  A    between atoms: _80  and  _81
REMARK   34  A    between atoms: _83  and  _85
REMARK   35  A    between atoms: _85  and  _86
REMARK   36  A    between atoms: _85  and  _88
REMARK   37  A    between atoms: _88  and  _89
REMARK   38  A    between atoms: _89  and  _90
REMARK   39  A    between atoms: _90  and  _91
REMARK   40  A    between atoms: _100  and  _102
REMARK   41  A    between atoms: _102  and  _103
REMARK   42  A    between atoms: _102  and  _105
REMARK   43  A    between atoms: _105  and  _106
REMARK   44  A    between atoms: _109  and  _111
REMARK   45  A    between atoms: _111  and  _112
REMARK   46  A    between atoms: _115  and  _117
REMARK   47  A    between atoms: _117  and  _118
REMARK   48  A    between atoms: _117  and  _120
REMARK   49  A    between atoms: _120  and  _121
REMARK   50  A    between atoms: _127  and  _129
REMARK   51  A    between atoms: _129  and  _130
REMARK   52  A    between atoms: _129  and  _132
REMARK   53  A    between atoms: _132  and  _133
REMARK   54  A    between atoms: _138  and  _139
REMARK   55  A    between atoms: _142  and  _143
REMARK   56  A    between atoms: _148  and  _150
REMARK   57  A    between atoms: _150  and  _151
REMARK   58  A    between atoms: _150  and  _153
REMARK   59  A    between atoms: _153  and  _154
REMARK   60  A    between atoms: _159  and  _161
REMARK   61  A    between atoms: _161  and  _162
REMARK   62  A    between atoms: _161  and  _164
REMARK   63  A    between atoms: _164  and  _165
REMARK   64  A    between atoms: _168  and  _170
REMARK   65  A    between atoms: _170  and  _171
REMARK   66  A    between atoms: _170  and  _173
REMARK   67  A    between atoms: _173  and  _174
REMARK   68  A    between atoms: _179  and  _181
REMARK   69  A    between atoms: _181  and  _182
REMARK   70  A    between atoms: _181  and  _184
REMARK   71  A    between atoms: _184  and  _185
REMARK   72  A    between atoms: _191  and  _193
REMARK   73  A    between atoms: _193  and  _194
REMARK   74  A    between atoms: _193  and  _196
REMARK   75  A    between atoms: _196  and  _197
REMARK   76  A    between atoms: _203  and  _205
REMARK   77  A    between atoms: _205  and  _206
REMARK   78  A    between atoms: _205  and  _208
REMARK   79  A    between atoms: _208  and  _209
REMARK   80  A    between atoms: _209  and  _210
REMARK   81  A    between atoms: _213  and  _215
REMARK   82  A    between atoms: _215  and  _216
REMARK   83  A    between atoms: _218  and  _220
REMARK   84  A    between atoms: _220  and  _221
REMARK   85  A    between atoms: _220  and  _223
REMARK   86  A    between atoms: _223  and  _224
REMARK   87  A    between atoms: _224  and  _225
REMARK   88  A    between atoms: _225  and  _226
REMARK   89  A    between atoms: _235  and  _237
REMARK   90  A    between atoms: _237  and  _238
REMARK   91  A    between atoms: _237  and  _240
REMARK   92  A    between atoms: _240  and  _241
REMARK   93  A    between atoms: _241  and  _242
REMARK   94  A    between atoms: _245  and  _247
REMARK   95  A    between atoms: _247  and  _248
REMARK   96  A    between atoms: _247  and  _250
REMARK   97  A    between atoms: _250  and  _251
REMARK   98  A    between atoms: _256  and  _258
REMARK   99  A    between atoms: _258  and  _259
REMARK  100  A    between atoms: _258  and  _261
REMARK  101  A    between atoms: _261  and  _262
REMARK  102  A    between atoms: _265  and  _267
REMARK  103  A    between atoms: _267  and  _268
REMARK  104  A    between atoms: _267  and  _270
REMARK  105  A    between atoms: _270  and  _271
REMARK  106  A    between atoms: _274  and  _276
REMARK  107  A    between atoms: _276  and  _277
REMARK  108  A    between atoms: _276  and  _279
REMARK  109  A    between atoms: _279  and  _280
REMARK  110  A    between atoms: _285  and  _287
REMARK  111  A    between atoms: _287  and  _288
REMARK  112  A    between atoms: _287  and  _290
REMARK  113  A    between atoms: _290  and  _291
REMARK  114  A    between atoms: _294  and  _296
REMARK  115  A    between atoms: _296  and  _297
REMARK  116  A    between atoms: _296  and  _299
REMARK  117  A    between atoms: _299  and  _300
REMARK  118  A    between atoms: _305  and  _307
REMARK  119  A    between atoms: _307  and  _308
REMARK  120  A    between atoms: _307  and  _310
REMARK  121  A    between atoms: _310  and  _311
REMARK  122  A    between atoms: _316  and  _318
REMARK  123  A    between atoms: _318  and  _319
REMARK  124  A    between atoms: _318  and  _321
REMARK  125  A    between atoms: _321  and  _322
REMARK  126  A    between atoms: _325  and  _327
REMARK  127  A    between atoms: _327  and  _328
REMARK  128  A    between atoms: _327  and  _330
REMARK  129  A    between atoms: _333  and  _335
REMARK  130  A    between atoms: _335  and  _336
REMARK  131  A    between atoms: _335  and  _338
REMARK  132  A    between atoms: _338  and  _339
REMARK  133  A    between atoms: _342  and  _344
REMARK  134  A    between atoms: _344  and  _345
REMARK  135  A    between atoms: _344  and  _347
REMARK  136  A    between atoms: _347  and  _348
REMARK  137  A    between atoms: _348  and  _349
REMARK  138  A    between atoms: _352  and  _354
REMARK  139  A    between atoms: _354  and  _355
REMARK  140  A    between atoms: _358  and  _360
REMARK  141  A    between atoms: _360  and  _361
REMARK  142  A    between atoms: _360  and  _363
REMARK  143  A    between atoms: _363  and  _364
REMARK  144  A    between atoms: _367  and  _369
REMARK  145  A    between atoms: _369  and  _370
REMARK  146  A    between atoms: _369  and  _372
REMARK  147  A    between atoms: _372  and  _373
REMARK  148  A    between atoms: _373  and  _374
REMARK  149  A    between atoms: _377  and  _379
REMARK  150  A    between atoms: _379  and  _380
REMARK  151  A    between atoms: _379  and  _382
REMARK  152  A    between atoms: _382  and  _383
REMARK  153  A    between atoms: _383  and  _384
REMARK  154  A    between atoms: _384  and  _385
REMARK  155  A    between atoms: _394  and  _396
REMARK  156  A    between atoms: _396  and  _397
REMARK  157  A    between atoms: _396  and  _399
REMARK  158  A    between atoms: _399  and  _400
REMARK  159  A    between atoms: _410  and  _412
REMARK  160  A    between atoms: _412  and  _413
REMARK  161  A    between atoms: _412  and  _415
REMARK  162  A    between atoms: _415  and  _416
REMARK  163  A    between atoms: _421  and  _423
REMARK  164  A    between atoms: _423  and  _424
REMARK  165  A    between atoms: _426  and  _428
REMARK  166  A    between atoms: _428  and  _429
REMARK  167  A    between atoms: _428  and  _431
REMARK  168  A    between atoms: _434  and  _436
REMARK  169  A    between atoms: _436  and  _437
REMARK  170  A    between atoms: _440  and  _442
REMARK  171  A    between atoms: _442  and  _443
REMARK  172  A    between atoms: _442  and  _445
REMARK  173  A    between atoms: _445  and  _446
REMARK  174  A    between atoms: _451  and  _453
REMARK  175  A    between atoms: _453  and  _454
REMARK  176  A    between atoms: _453  and  _456
REMARK  177  A    between atoms: _456  and  _457
REMARK  178  A    between atoms: _457  and  _458
REMARK  179  A    between atoms: _458  and  _459
REMARK  180  A    between atoms: _459  and  _460
REMARK  181  A    between atoms: _464  and  _466
REMARK  182  A    between atoms: _466  and  _467
REMARK  183  A    between atoms: _466  and  _469
REMARK  184  A    between atoms: _469  and  _470
REMARK  185  A    between atoms: _475  and  _477
REMARK  186  A    between atoms: _477  and  _478
REMARK  187  A    between atoms: _480  and  _482
REMARK  188  A    between atoms: _482  and  _483
REMARK  189  A    between atoms: _482  and  _485
REMARK  190  A    between atoms: _485  and  _486
REMARK  191  A    between atoms: _486  and  _487
REMARK  192  A    between atoms: _487  and  _488
REMARK  193  A    between atoms: _488  and  _489
REMARK  194  A    between atoms: _493  and  _495
REMARK  195  A    between atoms: _495  and  _496
REMARK  196  A    between atoms: _495  and  _498
REMARK  197  A    between atoms: _498  and  _499
REMARK  198  A    between atoms: _499  and  _500
REMARK  199  A    between atoms: _500  and  _501
REMARK  200  A    between atoms: _510  and  _512
REMARK  201  A    between atoms: _512  and  _513
REMARK  202  A    between atoms: _512  and  _515
REMARK  203  A    between atoms: _515  and  _516
REMARK  204  A    between atoms: _521  and  _522
REMARK  205  A    between atoms: _524  and  _526
REMARK  206  A    between atoms: _526  and  _527
REMARK  207  A    between atoms: _526  and  _529
REMARK  208  A    between atoms: _529  and  _530
REMARK  209  A    between atoms: _530  and  _531
REMARK  210  A    between atoms: _531  and  _532
REMARK  211  A    between atoms: _532  and  _533
REMARK  212  A    between atoms: _537  and  _539
REMARK  213  A    between atoms: _539  and  _540
REMARK  214  A    between atoms: _539  and  _542
REMARK  215  A    between atoms: _542  and  _543
REMARK  216  A    between atoms: _545  and  _547
REMARK  217  A    between atoms: _547  and  _548
REMARK  218  A    between atoms: _547  and  _550
REMARK  219  A    between atoms: _550  and  _551
REMARK  220  A    between atoms: _554  and  _556
REMARK  221  A    between atoms: _556  and  _557
REMARK  222  A    between atoms: _556  and  _559
REMARK  223  A    between atoms: _559  and  _560
REMARK  224  A    between atoms: _560  and  _561
REMARK  225  A    between atoms: _564  and  _566
REMARK  226  A    between atoms: _566  and  _567
REMARK  227  A    between atoms: _570  and  _572
REMARK  228  A    between atoms: _572  and  _573
REMARK  229  A    between atoms: _572  and  _575
REMARK  230  A    between atoms: _575  and  _576
REMARK  231  A    between atoms: _578  and  _580
REMARK  232  A    between atoms: _580  and  _581
REMARK  233  A    between atoms: _583  and  _585
REMARK  234  A    between atoms: _585  and  _586
REMARK  235  A    between atoms: _585  and  _588
REMARK  236  A    between atoms: _588  and  _589
REMARK  237  A    between atoms: _592  and  _594
REMARK  238  A    between atoms: _594  and  _595
REMARK  239  A    between atoms: _597  and  _599
REMARK  240  A    between atoms: _599  and  _600
REMARK  241  A    between atoms: _599  and  _602
REMARK  242  A    between atoms: _602  and  _603
REMARK  243  A    between atoms: _608  and  _610
REMARK  244  A    between atoms: _610  and  _611
REMARK  245  A    between atoms: _610  and  _613
REMARK  246  A    between atoms: _613  and  _614
REMARK  247  A    between atoms: _614  and  _615
REMARK  248  A    between atoms: _622  and  _623
REMARK  249  A    between atoms: _623  and  _639
REMARK  250  A    between atoms: _624  and  _626
REMARK  251  A    between atoms: _626  and  _627
REMARK  252  A    between atoms: _627  and  _628
REMARK  253  A    between atoms: _632  and  _634
REMARK  254  A    between atoms: _634  and  _635
REMARK  255  A    between atoms: _634  and  _642
REMARK  256  A    between atoms: _635  and  _636
REMARK  257  A    between atoms: _636  and  _637
REMARK  258  A    between atoms: _637  and  _638
REMARK  259  A    between atoms: _638  and  _639
REMARK  260  A    between atoms: _644  and  _646
REMARK  261  A    between atoms: _646  and  _647
REMARK  262  A    between atoms: _646  and  _649
REMARK  263  A    between atoms: _649  and  _650
REMARK  264  A    between atoms: _653  and  _655
REMARK  265  A    between atoms: _655  and  _656
REMARK  266  A    between atoms: _658  and  _660
REMARK  267  A    between atoms: _660  and  _661
REMARK  268  A    between atoms: _664  and  _666
REMARK  269  A    between atoms: _666  and  _667
REMARK  270  A    between atoms: _666  and  _669
REMARK  271  A    between atoms: _669  and  _670
REMARK  272  A    between atoms: _675  and  _676
REMARK                            x       y       z     vdW  Elec       q    Type
REMARK                         _______ _______ _______ _____ _____    ______ ____
ROOT
ATOM      1  C   LYS A   1      26.151  30.371  27.226  0.00  0.00    +0.238 C 
ATOM      2  N   ARG A   2      27.224  30.052  27.941  0.00  0.00    -0.298 N 
ATOM      3  H   ARG A   2      27.522  29.058  28.004  0.00  0.00    +0.150 HD
ATOM      4  O   LYS A   1      25.727  31.527  27.151  0.00  0.00    -0.274 OA
ENDROOT
BRANCH   1   5
ATOM      5  CA  LYS A   1      25.438  29.242  26.478  0.00  0.00    +0.145 C 
BRANCH   5   6
ATOM      6  N   LYS A   1      24.116  29.775  26.103  0.00  0.00    -0.238 NA
ATOM      7  H   LYS A   1      23.846  30.706  26.481  0.00  0.00    +0.142 HD
ENDBRANCH   5   6
BRANCH   5   8
ATOM      8  CB  LYS A   1      26.265  28.823  25.243  0.00  0.00    +0.026 C 
BRANCH   8   9
ATOM      9  CG  LYS A   1      26.383  29.905  24.147  0.00  0.00    -0.000 C 
BRANCH   9  10
ATOM     10  CD  LYS A   1      27.029  29.361  22.849  0.00  0.00    -0.024 C 
BRANCH  10  11
ATOM     11  CE  LYS A   1      26.107  28.343  22.146  0.00  0.00    -0.086 C 
BRANCH  11  12
ATOM     12  NZ  LYS A   1      26.796  27.029  21.951  0.00  0.00    +0.380 N 
ATOM     13  HZ1 LYS A   1      27.071  26.643  22.876  0.00  0.00    -0.089 HD
ATOM     14  HZ2 LYS A   1      26.150  26.367  21.476  0.00  0.00    -0.089 HD
ATOM     15  HZ3 LYS A   1      27.644  27.167  21.365  0.00  0.00    -0.089 HD
ENDBRANCH  11  12
ENDBRANCH  10  11
ENDBRANCH   9  10
ENDBRANCH   8   9
ENDBRANCH   5   8
ENDBRANCH   1   5
BRANCH   2  16
ATOM     16  CA  ARG A   2      27.995  31.087  28.645  0.00  0.00    +0.137 C 
BRANCH  16  17
ATOM     17  C   ARG A   2      28.516  32.174  27.683  0.00  0.00    +0.227 C 
ATOM     18  O   ARG A   2      28.827  31.895  26.519  0.00  0.00    -0.286 OA
ENDBRANCH  16  17
BRANCH  16  19
ATOM     19  CB  ARG A   2      29.150  30.457  29.435  0.00  0.00    +0.031 C 
BRANCH  19  20
ATOM     20  CG  ARG A   2      28.701  29.676  30.667  0.00  0.00    +0.045 C 
BRANCH  20  21
ATOM     21  CD  ARG A   2      28.157  30.587  31.772  0.00  0.00    +0.174 C 
BRANCH  21  22
ATOM     22  NE  ARG A   2      29.187  31.466  32.335  0.00  0.00    -0.265 N 
ATOM     23  CZ  ARG A   2      29.799  31.263  33.501  0.00  0.00    +0.342 C 
ATOM     24  NH2 ARG A   2      29.491  30.211  34.256  0.00  0.00    -0.292 N 
ATOM     25 HH21 ARG A   2      29.976  30.063  35.164  0.00  0.00    +0.255 HD
ATOM     26 HH22 ARG A   2      28.766  29.537  33.938  0.00  0.00    +0.255 HD
ATOM     27  NH1 ARG A   2      30.722  32.124  33.917  0.00  0.00    -0.292 N 
ATOM     28 HH11 ARG A   2      31.203  31.971  34.826  0.00  0.00    +0.255 HD
ATOM     29 HH12 ARG A   2      30.963  32.950  33.333  0.00  0.00    +0.255 HD
ATOM     30  HE  ARG A   2      29.459  32.306  31.786  0.00  0.00    +0.259 HD
ENDBRANCH  21  22
ENDBRANCH  20  21
ENDBRANCH  19  20
ENDBRANCH  16  19
ENDBRANCH   2  16
TORSDOF 13
REMARK  Name = ../refined-set-2016/3l7a/3l7a_pocket.pdb
REMARK  272 active torsions:
REMARK  status: ('A' for Active; 'I' for Inactive)
REMARK    1  A    between atoms: _1  and  _3
REMARK    2  A    between atoms: _3  and  _4
REMARK    3  A    between atoms: _3  and  _6
REMARK    4  A    between atoms: _6  and  _7
REMARK    5  A    between atoms: _12  and  _13
REMARK    6  A    between atoms: _15  and  _17
REMARK    7  A    between atoms: _17  and  _18
REMARK    8  A    between atoms: _17  and  _20
REMARK    9  A    between atoms: _20  and  _21
REMARK   10  A    between atoms: _24  and  _26
REMARK   11  A    between atoms: _26  and  _27
REMARK   12  A    between atoms: _26  and  _29
REMARK   13  A    between atoms: _29  and  _30
REMARK   14  A    between atoms: _30  and  _31
REMARK   15  A    between atoms: _34  and  _36
REMARK   16  A    between atoms: _36  and  _37
REMARK   17  A    between atoms: _36  and  _39
REMARK   18  A    between atoms: _39  and  _40
REMARK   19  A    between atoms: _45  and  _46
REMARK   20  A    between atoms: _48  and  _50
REMARK   21  A    between atoms: _50  and  _51
REMARK   22  A    between atoms: _50  and  _53
REMARK   23  A    between atoms: _53  and  _54
REMARK   24  A    between atoms: _59  and  _61
REMARK   25  A    between atoms: _61  and  _62
REMARK   26  A    between atoms: _64  and  _66
REMARK   27  A    between atoms: _66  and  _67
REMARK   28  A    between atoms: _69  and  _71
REMARK   29  A    between atoms: _71  and  _72
REMARK   30  A    between atoms: _71  and  _74
REMARK   31  A    between atoms: _74  and  _75
REMARK   32  A    between atoms: _78  and  _80
REMARK   33  A    between atoms: _80  and  _81
REMARK   34  A    between atoms: _83  and  _85
REMARK   35  A    between atoms: _85  and  _86
REMARK   36  A    between atoms: _85  and  _88
REMARK   37  A    between atoms: _88  and  _89
REMARK   38  A    between atoms: _89  and  _90
REMARK   39  A    between atoms: _90  and  _91
REMARK   40  A    between atoms: _100  and  _102
REMARK   41  A    between atoms: _102  and  _103
REMARK   42  A    between atoms: _102  and  _105
REMARK   43  A    between atoms: _105  and  _106
REMARK   44  A    between atoms: _109  and  _111
REMARK   45  A    between atoms: _111  and  _112
REMARK   46  A    between atoms: _115  and  _117
REMARK   47  A    between atoms: _117  and  _118
REMARK   48  A    between atoms: _117  and  _120
REMARK   49  A    between atoms: _120  and  _121
REMARK   50  A    between atoms: _127  and  _129
REMARK   51  A    between atoms: _129  and  _130
REMARK   52  A    between atoms: _129  and  _132
REMARK   53  A    between atoms: _132  and  _133
REMARK   54  A    between atoms: _138  and  _139
REMARK   55  A    between atoms: _142  and  _143
REMARK   56  A    between atoms: _148  and  _150
REMARK   57  A    between atoms: _150  and  _151
REMARK   58  A    between atoms: _150  and  _153
REMARK   59  A    between atoms: _153  and  _154
REMARK   60  A    between atoms: _159  and  _161
REMARK   61  A    between atoms: _161  and  _162
REMARK   62  A    between atoms: _161  and  _164
REMARK   63  A    between atoms: _164  and  _165
REMARK   64  A    between atoms: _168  and  _170
REMARK   65  A    between atoms: _170  and  _171
REMARK   66  A    between atoms: _170  and  _173
REMARK   67  A    between atoms: _173  and  _174
REMARK   68  A    between atoms: _179  and  _181
REMARK   69  A    between atoms: _181  and  _182
REMARK   70  A    between atoms: _181  and  _184
REMARK   71  A    between atoms: _184  and  _185
REMARK   72  A    between atoms: _191  and  _193
REMARK   73  A    between atoms: _193  and  _194
REMARK   74  A    between atoms: _193  and  _196
REMARK   75  A    between atoms: _196  and  _197
REMARK   76  A    between atoms: _203  and  _205
REMARK   77  A    between atoms: _205  and  _206
REMARK   78  A    between atoms: _205  and  _208
REMARK   79  A    between atoms: _208  and  _209
REMARK   80  A    between atoms: _209  and  _210
REMARK   81  A    between atoms: _213  and  _215
REMARK   82  A    between atoms: _215  and  _216
REMARK   83  A    between atoms: _218  and  _220
REMARK   84  A    between atoms: _220  and  _221
REMARK   85  A    between atoms: _220  and  _223
REMARK   86  A    between atoms: _223  and  _224
REMARK   87  A    between atoms: _224  and  _225
REMARK   88  A    between atoms: _225  and  _226
REMARK   89  A    between atoms: _235  and  _237
REMARK   90  A    between atoms: _237  and  _238
REMARK   91  A    between atoms: _237  and  _240
REMARK   92  A    between atoms: _240  and  _241
REMARK   93  A    between atoms: _241  and  _242
REMARK   94  A    between atoms: _245  and  _247
REMARK   95  A    between atoms: _247  and  _248
REMARK   96  A    between atoms: _247  and  _250
REMARK   97  A    between atoms: _250  and  _251
REMARK   98  A    between atoms: _256  and  _258
REMARK   99  A    between atoms: _258  and  _259
REMARK  100  A    between atoms: _258  and  _261
REMARK  101  A    between atoms: _261  and  _262
REMARK  102  A    between atoms: _265  and  _267
REMARK  103  A    between atoms: _267  and  _268
REMARK  104  A    between atoms: _267  and  _270
REMARK  105  A    between atoms: _270  and  _271
REMARK  106  A    between atoms: _274  and  _276
REMARK  107  A    between atoms: _276  and  _277
REMARK  108  A    between atoms: _276  and  _279
REMARK  109  A    between atoms: _279  and  _280
REMARK  110  A    between atoms: _285  and  _287
REMARK  111  A    between atoms: _287  and  _288
REMARK  112  A    between atoms: _287  and  _290
REMARK  113  A    between atoms: _290  and  _291
REMARK  114  A    between atoms: _294  and  _296
REMARK  115  A    between atoms: _296  and  _297
REMARK  116  A    between atoms: _296  and  _299
REMARK  117  A    between atoms: _299  and  _300
REMARK  118  A    between atoms: _305  and  _307
REMARK  119  A    between atoms: _307  and  _308
REMARK  120  A    between atoms: _307  and  _310
REMARK  121  A    between atoms: _310  and  _311
REMARK  122  A    between atoms: _316  and  _318
REMARK  123  A    between atoms: _318  and  _319
REMARK  124  A    between atoms: _318  and  _321
REMARK  125  A    between atoms: _321  and  _322
REMARK  126  A    between atoms: _325  and  _327
REMARK  127  A    between atoms: _327  and  _328
REMARK  128  A    between atoms: _327  and  _330
REMARK  129  A    between atoms: _333  and  _335
REMARK  130  A    between atoms: _335  and  _336
REMARK  131  A    between atoms: _335  and  _338
REMARK  132  A    between atoms: _338  and  _339
REMARK  133  A    between atoms: _342  and  _344
REMARK  134  A    between atoms: _344  and  _345
REMARK  135  A    between atoms: _344  and  _347
REMARK  136  A    between atoms: _347  and  _348
REMARK  137  A    between atoms: _348  and  _349
REMARK  138  A    between atoms: _352  and  _354
REMARK  139  A    between atoms: _354  and  _355
REMARK  140  A    between atoms: _358  and  _360
REMARK  141  A    between atoms: _360  and  _361
REMARK  142  A    between atoms: _360  and  _363
REMARK  143  A    between atoms: _363  and  _364
REMARK  144  A    between atoms: _367  and  _369
REMARK  145  A    between atoms: _369  and  _370
REMARK  146  A    between atoms: _369  and  _372
REMARK  147  A    between atoms: _372  and  _373
REMARK  148  A    between atoms: _373  and  _374
REMARK  149  A    between atoms: _377  and  _379
REMARK  150  A    between atoms: _379  and  _380
REMARK  151  A    between atoms: _379  and  _382
REMARK  152  A    between atoms: _382  and  _383
REMARK  153  A    between atoms: _383  and  _384
REMARK  154  A    between atoms: _384  and  _385
REMARK  155  A    between atoms: _394  and  _396
REMARK  156  A    between atoms: _396  and  _397
REMARK  157  A    between atoms: _396  and  _399
REMARK  158  A    between atoms: _399  and  _400
REMARK  159  A    between atoms: _410  and  _412
REMARK  160  A    between atoms: _412  and  _413
REMARK  161  A    between atoms: _412  and  _415
REMARK  162  A    between atoms: _415  and  _416
REMARK  163  A    between atoms: _421  and  _423
REMARK  164  A    between atoms: _423  and  _424
REMARK  165  A    between atoms: _426  and  _428
REMARK  166  A    between atoms: _428  and  _429
REMARK  167  A    between atoms: _428  and  _431
REMARK  168  A    between atoms: _434  and  _436
REMARK  169  A    between atoms: _436  and  _437
REMARK  170  A    between atoms: _440  and  _442
REMARK  171  A    between atoms: _442  and  _443
REMARK  172  A    between atoms: _442  and  _445
REMARK  173  A    between atoms: _445  and  _446
REMARK  174  A    between atoms: _451  and  _453
REMARK  175  A    between atoms: _453  and  _454
REMARK  176  A    between atoms: _453  and  _456
REMARK  177  A    between atoms: _456  and  _457
REMARK  178  A    between atoms: _457  and  _458
REMARK  179  A    between atoms: _458  and  _459
REMARK  180  A    between atoms: _459  and  _460
REMARK  181  A    between atoms: _464  and  _466
REMARK  182  A    between atoms: _466  and  _467
REMARK  183  A    between atoms: _466  and  _469
REMARK  184  A    between atoms: _469  and  _470
REMARK  185  A    between atoms: _475  and  _477
REMARK  186  A    between atoms: _477  and  _478
REMARK  187  A    between atoms: _480  and  _482
REMARK  188  A    between atoms: _482  and  _483
REMARK  189  A    between atoms: _482  and  _485
REMARK  190  A    between atoms: _485  and  _486
REMARK  191  A    between atoms: _486  and  _487
REMARK  192  A    between atoms: _487  and  _488
REMARK  193  A    between atoms: _488  and  _489
REMARK  194  A    between atoms: _493  and  _495
REMARK  195  A    between atoms: _495  and  _496
REMARK  196  A    between atoms: _495  and  _498
REMARK  197  A    between atoms: _498  and  _499
REMARK  198  A    between atoms: _499  and  _500
REMARK  199  A    between atoms: _500  and  _501
REMARK  200  A    between atoms: _510  and  _512
REMARK  201  A    between atoms: _512  and  _513
REMARK  202  A    between atoms: _512  and  _515
REMARK  203  A    between atoms: _515  and  _516
REMARK  204  A    between atoms: _521  and  _522
REMARK  205  A    between atoms: _524  and  _526
REMARK  206  A    between atoms: _526  and  _527
REMARK  207  A    between atoms: _526  and  _529
REMARK  208  A    between atoms: _529  and  _530
REMARK  209  A    between atoms: _530  and  _531
REMARK  210  A    between atoms: _531  and  _532
REMARK  211  A    between atoms: _532  and  _533
REMARK  212  A    between atoms: _537  and  _539
REMARK  213  A    between atoms: _539  and  _540
REMARK  214  A    between atoms: _539  and  _542
REMARK  215  A    between atoms: _542  and  _543
REMARK  216  A    between atoms: _545  and  _547
REMARK  217  A    between atoms: _547  and  _548
REMARK  218  A    between atoms: _547  and  _550
REMARK  219  A    between atoms: _550  and  _551
REMARK  220  A    between atoms: _554  and  _556
REMARK  221  A    between atoms: _556  and  _557
REMARK  222  A    between atoms: _556  and  _559
REMARK  223  A    between atoms: _559  and  _560
REMARK  224  A    between atoms: _560  and  _561
REMARK  225  A    between atoms: _564  and  _566
REMARK  226  A    between atoms: _566  and  _567
REMARK  227  A    between atoms: _570  and  _572
REMARK  228  A    between atoms: _572  and  _573
REMARK  229  A    between atoms: _572  and  _575
REMARK  230  A    between atoms: _575  and  _576
REMARK  231  A    between atoms: _578  and  _580
REMARK  232  A    between atoms: _580  and  _581
REMARK  233  A    between atoms: _583  and  _585
REMARK  234  A    between atoms: _585  and  _586
REMARK  235  A    between atoms: _585  and  _588
REMARK  236  A    between atoms: _588  and  _589
REMARK  237  A    between atoms: _592  and  _594
REMARK  238  A    between atoms: _594  and  _595
REMARK  239  A    between atoms: _597  and  _599
REMARK  240  A    between atoms: _599  and  _600
REMARK  241  A    between atoms: _599  and  _602
REMARK  242  A    between atoms: _602  and  _603
REMARK  243  A    between atoms: _608  and  _610
REMARK  244  A    between atoms: _610  and  _611
REMARK  245  A    between atoms: _610  and  _613
REMARK  246  A    between atoms: _613  and  _614
REMARK  247  A    between atoms: _614  and  _615
REMARK  248  A    between atoms: _622  and  _623
REMARK  249  A    between atoms: _623  and  _639
REMARK  250  A    between atoms: _624  and  _626
REMARK  251  A    between atoms: _626  and  _627
REMARK  252  A    between atoms: _627  and  _628
REMARK  253  A    between atoms: _632  and  _634
REMARK  254  A    between atoms: _634  and  _635
REMARK  255  A    between atoms: _634  and  _642
REMARK  256  A    between atoms: _635  and  _636
REMARK  257  A    between atoms: _636  and  _637
REMARK  258  A    between atoms: _637  and  _638
REMARK  259  A    between atoms: _638  and  _639
REMARK  260  A    between atoms: _644  and  _646
REMARK  261  A    between atoms: _646  and  _647
REMARK  262  A    between atoms: _646  and  _649
REMARK  263  A    between atoms: _649  and  _650
REMARK  264  A    between atoms: _653  and  _655
REMARK  265  A    between atoms: _655  and  _656
REMARK  266  A    between atoms: _658  and  _660
REMARK  267  A    between atoms: _660  and  _661
REMARK  268  A    between atoms: _664  and  _666
REMARK  269  A    between atoms: _666  and  _667
REMARK  270  A    between atoms: _666  and  _669
REMARK  271  A    between atoms: _669  and  _670
REMARK  272  A    between atoms: _675  and  _676
REMARK                            x       y       z     vdW  Elec       q    Type
REMARK                         _______ _______ _______ _____ _____    ______ ____
ROOT
ATOM      1  C   TYR A   1      33.627  32.148  20.644  0.00  0.00    +0.239 C 
ATOM      2  N   LYS A   2      32.584  32.243  21.470  0.00  0.00    -0.298 N 
ATOM      3  H   LYS A   2      32.714  32.705  22.393  0.00  0.00    +0.150 HD
ATOM      4  O   TYR A   1      33.574  31.616  19.533  0.00  0.00    -0.274 OA
ENDROOT
BRANCH   1   5
ATOM      5  CA  TYR A   1      34.945  32.728  21.135  0.00  0.00    +0.149 C 
BRANCH   5   6
ATOM      6  N   TYR A   1      34.779  33.810  22.116  0.00  0.00    -0.238 NA
ATOM      7  H   TYR A   1      35.062  33.671  23.107  0.00  0.00    +0.142 HD
ENDBRANCH   5   6
BRANCH   5   8
ATOM      8  CB  TYR A   1      35.918  31.626  21.589  0.00  0.00    +0.053 C 
BRANCH   8   9
ATOM      9  CG  TYR A   1      35.356  30.506  22.440  0.00  0.00    -0.020 A 
ATOM     10  CD2 TYR A   1      35.459  30.545  23.833  0.00  0.00    -0.001 A 
ATOM     11  CE2 TYR A   1      34.962  29.509  24.621  0.00  0.00    +0.036 A 
ATOM     12  CZ  TYR A   1      34.388  28.409  24.020  0.00  0.00    +0.134 A 
ATOM     13  CE1 TYR A   1      34.294  28.336  22.631  0.00  0.00    +0.036 A 
ATOM     14  CD1 TYR A   1      34.775  29.375  21.855  0.00  0.00    -0.001 A 
BRANCH  12  15
ATOM     15  OH  TYR A   1      33.899  27.374  24.800  0.00  0.00    -0.506 OA
ATOM     16  HH  TYR A   1      33.524  26.670  24.214  0.00  0.00    +0.292 HD
ENDBRANCH  12  15
ENDBRANCH   8   9
ENDBRANCH   5   8
ENDBRANCH   1   5
BRANCH   2  17
ATOM     17  CA  LYS A   2      31.262  31.718  21.121  0.00  0.00    +0.137 C 
BRANCH  17  18
ATOM     18  C   LYS A   2      30.492  32.661  20.184  0.00  0.00    +0.227 C 
ATOM     19  O   LYS A   2      29.458  32.287  19.618  0.00  0.00    -0.286 OA
ENDBRANCH  17  18
BRANCH  17  20
ATOM     20  CB  LYS A   2      30.446  31.417  22.384  0.00  0.00    +0.028 C 
BRANCH  20  21
ATOM     21  CG  LYS A   2      30.964  30.201  23.182  0.00  0.00    -0.000 C 
BRANCH  21  22
ATOM     22  CD  LYS A   2      30.312  30.108  24.567  0.00  0.00    -0.024 C 
BRANCH  22  23
ATOM     23  CE  LYS A   2      30.887  28.984  25.445  0.00  0.00    -0.086 C 
BRANCH  23  24
ATOM     24  NZ  LYS A   2      30.388  27.625  25.003  0.00  0.00    +0.380 N 
ATOM     25  HZ1 LYS A   2      30.796  26.891  25.617  0.00  0.00    -0.089 HD
ATOM     26  HZ2 LYS A   2      29.351  27.599  25.071  0.00  0.00    -0.089 HD
ATOM     27  HZ3 LYS A   2      30.676  27.455  24.018  0.00  0.00    -0.089 HD
ENDBRANCH  23  24
ENDBRANCH  22  23
ENDBRANCH  21  22
ENDBRANCH  20  21
ENDBRANCH  17  20
ENDBRANCH   2  17
TORSDOF 12
REMARK  Name = ../refined-set-2016/3l7a/3l7a_pocket.pdb
REMARK  272 active torsions:
REMARK  status: ('A' for Active; 'I' for Inactive)
REMARK    1  A    between atoms: _1  and  _3
REMARK    2  A    between atoms: _3  and  _4
REMARK    3  A    between atoms: _3  and  _6
REMARK    4  A    between atoms: _6  and  _7
REMARK    5  A    between atoms: _12  and  _13
REMARK    6  A    between atoms: _15  and  _17
REMARK    7  A    between atoms: _17  and  _18
REMARK    8  A    between atoms: _17  and  _20
REMARK    9  A    between atoms: _20  and  _21
REMARK   10  A    between atoms: _24  and  _26
REMARK   11  A    between atoms: _26  and  _27
REMARK   12  A    between atoms: _26  and  _29
REMARK   13  A    between atoms: _29  and  _30
REMARK   14  A    between atoms: _30  and  _31
REMARK   15  A    between atoms: _34  and  _36
REMARK   16  A    between atoms: _36  and  _37
REMARK   17  A    between atoms: _36  and  _39
REMARK   18  A    between atoms: _39  and  _40
REMARK   19  A    between atoms: _45  and  _46
REMARK   20  A    between atoms: _48  and  _50
REMARK   21  A    between atoms: _50  and  _51
REMARK   22  A    between atoms: _50  and  _53
REMARK   23  A    between atoms: _53  and  _54
REMARK   24  A    between atoms: _59  and  _61
REMARK   25  A    between atoms: _61  and  _62
REMARK   26  A    between atoms: _64  and  _66
REMARK   27  A    between atoms: _66  and  _67
REMARK   28  A    between atoms: _69  and  _71
REMARK   29  A    between atoms: _71  and  _72
REMARK   30  A    between atoms: _71  and  _74
REMARK   31  A    between atoms: _74  and  _75
REMARK   32  A    between atoms: _78  and  _80
REMARK   33  A    between atoms: _80  and  _81
REMARK   34  A    between atoms: _83  and  _85
REMARK   35  A    between atoms: _85  and  _86
REMARK   36  A    between atoms: _85  and  _88
REMARK   37  A    between atoms: _88  and  _89
REMARK   38  A    between atoms: _89  and  _90
REMARK   39  A    between atoms: _90  and  _91
REMARK   40  A    between atoms: _100  and  _102
REMARK   41  A    between atoms: _102  and  _103
REMARK   42  A    between atoms: _102  and  _105
REMARK   43  A    between atoms: _105  and  _106
REMARK   44  A    between atoms: _109  and  _111
REMARK   45  A    between atoms: _111  and  _112
REMARK   46  A    between atoms: _115  and  _117
REMARK   47  A    between atoms: _117  and  _118
REMARK   48  A    between atoms: _117  and  _120
REMARK   49  A    between atoms: _120  and  _121
REMARK   50  A    between atoms: _127  and  _129
REMARK   51  A    between atoms: _129  and  _130
REMARK   52  A    between atoms: _129  and  _132
REMARK   53  A    between atoms: _132  and  _133
REMARK   54  A    between atoms: _138  and  _139
REMARK   55  A    between atoms: _142  and  _143
REMARK   56  A    between atoms: _148  and  _150
REMARK   57  A    between atoms: _150  and  _151
REMARK   58  A    between atoms: _150  and  _153
REMARK   59  A    between atoms: _153  and  _154
REMARK   60  A    between atoms: _159  and  _161
REMARK   61  A    between atoms: _161  and  _162
REMARK   62  A    between atoms: _161  and  _164
REMARK   63  A    between atoms: _164  and  _165
REMARK   64  A    between atoms: _168  and  _170
REMARK   65  A    between atoms: _170  and  _171
REMARK   66  A    between atoms: _170  and  _173
REMARK   67  A    between atoms: _173  and  _174
REMARK   68  A    between atoms: _179  and  _181
REMARK   69  A    between atoms: _181  and  _182
REMARK   70  A    between atoms: _181  and  _184
REMARK   71  A    between atoms: _184  and  _185
REMARK   72  A    between atoms: _191  and  _193
REMARK   73  A    between atoms: _193  and  _194
REMARK   74  A    between atoms: _193  and  _196
REMARK   75  A    between atoms: _196  and  _197
REMARK   76  A    between atoms: _203  and  _205
REMARK   77  A    between atoms: _205  and  _206
REMARK   78  A    between atoms: _205  and  _208
REMARK   79  A    between atoms: _208  and  _209
REMARK   80  A    between atoms: _209  and  _210
REMARK   81  A    between atoms: _213  and  _215
REMARK   82  A    between atoms: _215  and  _216
REMARK   83  A    between atoms: _218  and  _220
REMARK   84  A    between atoms: _220  and  _221
REMARK   85  A    between atoms: _220  and  _223
REMARK   86  A    between atoms: _223  and  _224
REMARK   87  A    between atoms: _224  and  _225
REMARK   88  A    between atoms: _225  and  _226
REMARK   89  A    between atoms: _235  and  _237
REMARK   90  A    between atoms: _237  and  _238
REMARK   91  A    between atoms: _237  and  _240
REMARK   92  A    between atoms: _240  and  _241
REMARK   93  A    between atoms: _241  and  _242
REMARK   94  A    between atoms: _245  and  _247
REMARK   95  A    between atoms: _247  and  _248
REMARK   96  A    between atoms: _247  and  _250
REMARK   97  A    between atoms: _250  and  _251
REMARK   98  A    between atoms: _256  and  _258
REMARK   99  A    between atoms: _258  and  _259
REMARK  100  A    between atoms: _258  and  _261
REMARK  101  A    between atoms: _261  and  _262
REMARK  102  A    between atoms: _265  and  _267
REMARK  103  A    between atoms: _267  and  _268
REMARK  104  A    between atoms: _267  and  _270
REMARK  105  A    between atoms: _270  and  _271
REMARK  106  A    between atoms: _274  and  _276
REMARK  107  A    between atoms: _276  and  _277
REMARK  108  A    between atoms: _276  and  _279
REMARK  109  A    between atoms: _279  and  _280
REMARK  110  A    between atoms: _285  and  _287
REMARK  111  A    between atoms: _287  and  _288
REMARK  112  A    between atoms: _287  and  _290
REMARK  113  A    between atoms: _290  and  _291
REMARK  114  A    between atoms: _294  and  _296
REMARK  115  A    between atoms: _296  and  _297
REMARK  116  A    between atoms: _296  and  _299
REMARK  117  A    between atoms: _299  and  _300
REMARK  118  A    between atoms: _305  and  _307
REMARK  119  A    between atoms: _307  and  _308
REMARK  120  A    between atoms: _307  and  _310
REMARK  121  A    between atoms: _310  and  _311
REMARK  122  A    between atoms: _316  and  _318
REMARK  123  A    between atoms: _318  and  _319
REMARK  124  A    between atoms: _318  and  _321
REMARK  125  A    between atoms: _321  and  _322
REMARK  126  A    between atoms: _325  and  _327
REMARK  127  A    between atoms: _327  and  _328
REMARK  128  A    between atoms: _327  and  _330
REMARK  129  A    between atoms: _333  and  _335
REMARK  130  A    between atoms: _335  and  _336
REMARK  131  A    between atoms: _335  and  _338
REMARK  132  A    between atoms: _338  and  _339
REMARK  133  A    between atoms: _342  and  _344
REMARK  134  A    between atoms: _344  and  _345
REMARK  135  A    between atoms: _344  and  _347
REMARK  136  A    between atoms: _347  and  _348
REMARK  137  A    between atoms: _348  and  _349
REMARK  138  A    between atoms: _352  and  _354
REMARK  139  A    between atoms: _354  and  _355
REMARK  140  A    between atoms: _358  and  _360
REMARK  141  A    between atoms: _360  and  _361
REMARK  142  A    between atoms: _360  and  _363
REMARK  143  A    between atoms: _363  and  _364
REMARK  144  A    between atoms: _367  and  _369
REMARK  145  A    between atoms: _369  and  _370
REMARK  146  A    between atoms: _369  and  _372
REMARK  147  A    between atoms: _372  and  _373
REMARK  148  A    between atoms: _373  and  _374
REMARK  149  A    between atoms: _377  and  _379
REMARK  150  A    between atoms: _379  and  _380
REMARK  151  A    between atoms: _379  and  _382
REMARK  152  A    between atoms: _382  and  _383
REMARK  153  A    between atoms: _383  and  _384
REMARK  154  A    between atoms: _384  and  _385
REMARK  155  A    between atoms: _394  and  _396
REMARK  156  A    between atoms: _396  and  _397
REMARK  157  A    between atoms: _396  and  _399
REMARK  158  A    between atoms: _399  and  _400
REMARK  159  A    between atoms: _410  and  _412
REMARK  160  A    between atoms: _412  and  _413
REMARK  161  A    between atoms: _412  and  _415
REMARK  162  A    between atoms: _415  and  _416
REMARK  163  A    between atoms: _421  and  _423
REMARK  164  A    between atoms: _423  and  _424
REMARK  165  A    between atoms: _426  and  _428
REMARK  166  A    between atoms: _428  and  _429
REMARK  167  A    between atoms: _428  and  _431
REMARK  168  A    between atoms: _434  and  _436
REMARK  169  A    between atoms: _436  and  _437
REMARK  170  A    between atoms: _440  and  _442
REMARK  171  A    between atoms: _442  and  _443
REMARK  172  A    between atoms: _442  and  _445
REMARK  173  A    between atoms: _445  and  _446
REMARK  174  A    between atoms: _451  and  _453
REMARK  175  A    between atoms: _453  and  _454
REMARK  176  A    between atoms: _453  and  _456
REMARK  177  A    between atoms: _456  and  _457
REMARK  178  A    between atoms: _457  and  _458
REMARK  179  A    between atoms: _458  and  _459
REMARK  180  A    between atoms: _459  and  _460
REMARK  181  A    between atoms: _464  and  _466
REMARK  182  A    between atoms: _466  and  _467
REMARK  183  A    between atoms: _466  and  _469
REMARK  184  A    between atoms: _469  and  _470
REMARK  185  A    between atoms: _475  and  _477
REMARK  186  A    between atoms: _477  and  _478
REMARK  187  A    between atoms: _480  and  _482
REMARK  188  A    between atoms: _482  and  _483
REMARK  189  A    between atoms: _482  and  _485
REMARK  190  A    between atoms: _485  and  _486
REMARK  191  A    between atoms: _486  and  _487
REMARK  192  A    between atoms: _487  and  _488
REMARK  193  A    between atoms: _488  and  _489
REMARK  194  A    between atoms: _493  and  _495
REMARK  195  A    between atoms: _495  and  _496
REMARK  196  A    between atoms: _495  and  _498
REMARK  197  A    between atoms: _498  and  _499
REMARK  198  A    between atoms: _499  and  _500
REMARK  199  A    between atoms: _500  and  _501
REMARK  200  A    between atoms: _510  and  _512
REMARK  201  A    between atoms: _512  and  _513
REMARK  202  A    between atoms: _512  and  _515
REMARK  203  A    between atoms: _515  and  _516
REMARK  204  A    between atoms: _521  and  _522
REMARK  205  A    between atoms: _524  and  _526
REMARK  206  A    between atoms: _526  and  _527
REMARK  207  A    between atoms: _526  and  _529
REMARK  208  A    between atoms: _529  and  _530
REMARK  209  A    between atoms: _530  and  _531
REMARK  210  A    between atoms: _531  and  _532
REMARK  211  A    between atoms: _532  and  _533
REMARK  212  A    between atoms: _537  and  _539
REMARK  213  A    between atoms: _539  and  _540
REMARK  214  A    between atoms: _539  and  _542
REMARK  215  A    between atoms: _542  and  _543
REMARK  216  A    between atoms: _545  and  _547
REMARK  217  A    between atoms: _547  and  _548
REMARK  218  A    between atoms: _547  and  _550
REMARK  219  A    between atoms: _550  and  _551
REMARK  220  A    between atoms: _554  and  _556
REMARK  221  A    between atoms: _556  and  _557
REMARK  222  A    between atoms: _556  and  _559
REMARK  223  A    between atoms: _559  and  _560
REMARK  224  A    between atoms: _560  and  _561
REMARK  225  A    between atoms: _564  and  _566
REMARK  226  A    between atoms: _566  and  _567
REMARK  227  A    between atoms: _570  and  _572
REMARK  228  A    between atoms: _572  and  _573
REMARK  229  A    between atoms: _572  and  _575
REMARK  230  A    between atoms: _575  and  _576
REMARK  231  A    between atoms: _578  and  _580
REMARK  232  A    between atoms: _580  and  _581
REMARK  233  A    between atoms: _583  and  _585
REMARK  234  A    between atoms: _585  and  _586
REMARK  235  A    between atoms: _585  and  _588
REMARK  236  A    between atoms: _588  and  _589
REMARK  237  A    between atoms: _592  and  _594
REMARK  238  A    between atoms: _594  and  _595
REMARK  239  A    between atoms: _597  and  _599
REMARK  240  A    between atoms: _599  and  _600
REMARK  241  A    between atoms: _599  and  _602
REMARK  242  A    between atoms: _602  and  _603
REMARK  243  A    between atoms: _608  and  _610
REMARK  244  A    between atoms: _610  and  _611
REMARK  245  A    between atoms: _610  and  _613
REMARK  246  A    between atoms: _613  and  _614
REMARK  247  A    between atoms: _614  and  _615
REMARK  248  A    between atoms: _622  and  _623
REMARK  249  A    between atoms: _623  and  _639
REMARK  250  A    between atoms: _624  and  _626
REMARK  251  A    between atoms: _626  and  _627
REMARK  252  A    between atoms: _627  and  _628
REMARK  253  A    between atoms: _632  and  _634
REMARK  254  A    between atoms: _634  and  _635
REMARK  255  A    between atoms: _634  and  _642
REMARK  256  A    between atoms: _635  and  _636
REMARK  257  A    between atoms: _636  and  _637
REMARK  258  A    between atoms: _637  and  _638
REMARK  259  A    between atoms: _638  and  _639
REMARK  260  A    between atoms: _644  and  _646
REMARK  261  A    between atoms: _646  and  _647
REMARK  262  A    between atoms: _646  and  _649
REMARK  263  A    between atoms: _649  and  _650
REMARK  264  A    between atoms: _653  and  _655
REMARK  265  A    between atoms: _655  and  _656
REMARK  266  A    between atoms: _658  and  _660
REMARK  267  A    between atoms: _660  and  _661
REMARK  268  A    between atoms: _664  and  _666
REMARK  269  A    between atoms: _666  and  _667
REMARK  270  A    between atoms: _666  and  _669
REMARK  271  A    between atoms: _669  and  _670
REMARK  272  A    between atoms: _675  and  _676
REMARK                            x       y       z     vdW  Elec       q    Type
REMARK                         _______ _______ _______ _____ _____    ______ ____
ROOT
ATOM      1  CA  SER A   1      31.967  29.496  17.484  0.00  0.00    +0.163 C 
ENDROOT
BRANCH   1   2
ATOM      2  N   SER A   1      30.591  29.287  17.021  0.00  0.00    -0.237 NA
ATOM      3  H   SER A   1      30.069  28.458  17.371  0.00  0.00    +0.142 HD
ENDBRANCH   1   2
BRANCH   1   4
ATOM      4  C   SER A   1      32.938  29.519  16.282  0.00  0.00    +0.227 C 
ATOM      5  O   SER A   1      32.684  28.882  15.265  0.00  0.00    -0.287 OA
ENDBRANCH   1   4
BRANCH   1   6
ATOM      6  CB  SER A   1      32.346  28.374  18.442  0.00  0.00    +0.162 C 
BRANCH   6   7
ATOM      7  OG  SER A   1      32.120  27.100  17.835  0.00  0.00    -0.380 OA
ATOM      8  H   SER A   1      31.162  27.013  17.600  0.00  0.00    +0.211 HD
ENDBRANCH   6   7
ENDBRANCH   1   6
TORSDOF 4
REMARK  Name = ../refined-set-2016/3l7a/3l7a_pocket.pdb
REMARK  272 active torsions:
REMARK  status: ('A' for Active; 'I' for Inactive)
REMARK    1  A    between atoms: _1  and  _3
REMARK    2  A    between atoms: _3  and  _4
REMARK    3  A    between atoms: _3  and  _6
REMARK    4  A    between atoms: _6  and  _7
REMARK    5  A    between atoms: _12  and  _13
REMARK    6  A    between atoms: _15  and  _17
REMARK    7  A    between atoms: _17  and  _18
REMARK    8  A    between atoms: _17  and  _20
REMARK    9  A    between atoms: _20  and  _21
REMARK   10  A    between atoms: _24  and  _26
REMARK   11  A    between atoms: _26  and  _27
REMARK   12  A    between atoms: _26  and  _29
REMARK   13  A    between atoms: _29  and  _30
REMARK   14  A    between atoms: _30  and  _31
REMARK   15  A    between atoms: _34  and  _36
REMARK   16  A    between atoms: _36  and  _37
REMARK   17  A    between atoms: _36  and  _39
REMARK   18  A    between atoms: _39  and  _40
REMARK   19  A    between atoms: _45  and  _46
REMARK   20  A    between atoms: _48  and  _50
REMARK   21  A    between atoms: _50  and  _51
REMARK   22  A    between atoms: _50  and  _53
REMARK   23  A    between atoms: _53  and  _54
REMARK   24  A    between atoms: _59  and  _61
REMARK   25  A    between atoms: _61  and  _62
REMARK   26  A    between atoms: _64  and  _66
REMARK   27  A    between atoms: _66  and  _67
REMARK   28  A    between atoms: _69  and  _71
REMARK   29  A    between atoms: _71  and  _72
REMARK   30  A    between atoms: _71  and  _74
REMARK   31  A    between atoms: _74  and  _75
REMARK   32  A    between atoms: _78  and  _80
REMARK   33  A    between atoms: _80  and  _81
REMARK   34  A    between atoms: _83  and  _85
REMARK   35  A    between atoms: _85  and  _86
REMARK   36  A    between atoms: _85  and  _88
REMARK   37  A    between atoms: _88  and  _89
REMARK   38  A    between atoms: _89  and  _90
REMARK   39  A    between atoms: _90  and  _91
REMARK   40  A    between atoms: _100  and  _102
REMARK   41  A    between atoms: _102  and  _103
REMARK   42  A    between atoms: _102  and  _105
REMARK   43  A    between atoms: _105  and  _106
REMARK   44  A    between atoms: _109  and  _111
REMARK   45  A    between atoms: _111  and  _112
REMARK   46  A    between atoms: _115  and  _117
REMARK   47  A    between atoms: _117  and  _118
REMARK   48  A    between atoms: _117  and  _120
REMARK   49  A    between atoms: _120  and  _121
REMARK   50  A    between atoms: _127  and  _129
REMARK   51  A    between atoms: _129  and  _130
REMARK   52  A    between atoms: _129  and  _132
REMARK   53  A    between atoms: _132  and  _133
REMARK   54  A    between atoms: _138  and  _139
REMARK   55  A    between atoms: _142  and  _143
REMARK   56  A    between atoms: _148  and  _150
REMARK   57  A    between atoms: _150  and  _151
REMARK   58  A    between atoms: _150  and  _153
REMARK   59  A    between atoms: _153  and  _154
REMARK   60  A    between atoms: _159  and  _161
REMARK   61  A    between atoms: _161  and  _162
REMARK   62  A    between atoms: _161  and  _164
REMARK   63  A    between atoms: _164  and  _165
REMARK   64  A    between atoms: _168  and  _170
REMARK   65  A    between atoms: _170  and  _171
REMARK   66  A    between atoms: _170  and  _173
REMARK   67  A    between atoms: _173  and  _174
REMARK   68  A    between atoms: _179  and  _181
REMARK   69  A    between atoms: _181  and  _182
REMARK   70  A    between atoms: _181  and  _184
REMARK   71  A    between atoms: _184  and  _185
REMARK   72  A    between atoms: _191  and  _193
REMARK   73  A    between atoms: _193  and  _194
REMARK   74  A    between atoms: _193  and  _196
REMARK   75  A    between atoms: _196  and  _197
REMARK   76  A    between atoms: _203  and  _205
REMARK   77  A    between atoms: _205  and  _206
REMARK   78  A    between atoms: _205  and  _208
REMARK   79  A    between atoms: _208  and  _209
REMARK   80  A    between atoms: _209  and  _210
REMARK   81  A    between atoms: _213  and  _215
REMARK   82  A    between atoms: _215  and  _216
REMARK   83  A    between atoms: _218  and  _220
REMARK   84  A    between atoms: _220  and  _221
REMARK   85  A    between atoms: _220  and  _223
REMARK   86  A    between atoms: _223  and  _224
REMARK   87  A    between atoms: _224  and  _225
REMARK   88  A    between atoms: _225  and  _226
REMARK   89  A    between atoms: _235  and  _237
REMARK   90  A    between atoms: _237  and  _238
REMARK   91  A    between atoms: _237  and  _240
REMARK   92  A    between atoms: _240  and  _241
REMARK   93  A    between atoms: _241  and  _242
REMARK   94  A    between atoms: _245  and  _247
REMARK   95  A    between atoms: _247  and  _248
REMARK   96  A    between atoms: _247  and  _250
REMARK   97  A    between atoms: _250  and  _251
REMARK   98  A    between atoms: _256  and  _258
REMARK   99  A    between atoms: _258  and  _259
REMARK  100  A    between atoms: _258  and  _261
REMARK  101  A    between atoms: _261  and  _262
REMARK  102  A    between atoms: _265  and  _267
REMARK  103  A    between atoms: _267  and  _268
REMARK  104  A    between atoms: _267  and  _270
REMARK  105  A    between atoms: _270  and  _271
REMARK  106  A    between atoms: _274  and  _276
REMARK  107  A    between atoms: _276  and  _277
REMARK  108  A    between atoms: _276  and  _279
REMARK  109  A    between atoms: _279  and  _280
REMARK  110  A    between atoms: _285  and  _287
REMARK  111  A    between atoms: _287  and  _288
REMARK  112  A    between atoms: _287  and  _290
REMARK  113  A    between atoms: _290  and  _291
REMARK  114  A    between atoms: _294  and  _296
REMARK  115  A    between atoms: _296  and  _297
REMARK  116  A    between atoms: _296  and  _299
REMARK  117  A    between atoms: _299  and  _300
REMARK  118  A    between atoms: _305  and  _307
REMARK  119  A    between atoms: _307  and  _308
REMARK  120  A    between atoms: _307  and  _310
REMARK  121  A    between atoms: _310  and  _311
REMARK  122  A    between atoms: _316  and  _318
REMARK  123  A    between atoms: _318  and  _319
REMARK  124  A    between atoms: _318  and  _321
REMARK  125  A    between atoms: _321  and  _322
REMARK  126  A    between atoms: _325  and  _327
REMARK  127  A    between atoms: _327  and  _328
REMARK  128  A    between atoms: _327  and  _330
REMARK  129  A    between atoms: _333  and  _335
REMARK  130  A    between atoms: _335  and  _336
REMARK  131  A    between atoms: _335  and  _338
REMARK  132  A    between atoms: _338  and  _339
REMARK  133  A    between atoms: _342  and  _344
REMARK  134  A    between atoms: _344  and  _345
REMARK  135  A    between atoms: _344  and  _347
REMARK  136  A    between atoms: _347  and  _348
REMARK  137  A    between atoms: _348  and  _349
REMARK  138  A    between atoms: _352  and  _354
REMARK  139  A    between atoms: _354  and  _355
REMARK  140  A    between atoms: _358  and  _360
REMARK  141  A    between atoms: _360  and  _361
REMARK  142  A    between atoms: _360  and  _363
REMARK  143  A    between atoms: _363  and  _364
REMARK  144  A    between atoms: _367  and  _369
REMARK  145  A    between atoms: _369  and  _370
REMARK  146  A    between atoms: _369  and  _372
REMARK  147  A    between atoms: _372  and  _373
REMARK  148  A    between atoms: _373  and  _374
REMARK  149  A    between atoms: _377  and  _379
REMARK  150  A    between atoms: _379  and  _380
REMARK  151  A    between atoms: _379  and  _382
REMARK  152  A    between atoms: _382  and  _383
REMARK  153  A    between atoms: _383  and  _384
REMARK  154  A    between atoms: _384  and  _385
REMARK  155  A    between atoms: _394  and  _396
REMARK  156  A    between atoms: _396  and  _397
REMARK  157  A    between atoms: _396  and  _399
REMARK  158  A    between atoms: _399  and  _400
REMARK  159  A    between atoms: _410  and  _412
REMARK  160  A    between atoms: _412  and  _413
REMARK  161  A    between atoms: _412  and  _415
REMARK  162  A    between atoms: _415  and  _416
REMARK  163  A    between atoms: _421  and  _423
REMARK  164  A    between atoms: _423  and  _424
REMARK  165  A    between atoms: _426  and  _428
REMARK  166  A    between atoms: _428  and  _429
REMARK  167  A    between atoms: _428  and  _431
REMARK  168  A    between atoms: _434  and  _436
REMARK  169  A    between atoms: _436  and  _437
REMARK  170  A    between atoms: _440  and  _442
REMARK  171  A    between atoms: _442  and  _443
REMARK  172  A    between atoms: _442  and  _445
REMARK  173  A    between atoms: _445  and  _446
REMARK  174  A    between atoms: _451  and  _453
REMARK  175  A    between atoms: _453  and  _454
REMARK  176  A    between atoms: _453  and  _456
REMARK  177  A    between atoms: _456  and  _457
REMARK  178  A    between atoms: _457  and  _458
REMARK  179  A    between atoms: _458  and  _459
REMARK  180  A    between atoms: _459  and  _460
REMARK  181  A    between atoms: _464  and  _466
REMARK  182  A    between atoms: _466  and  _467
REMARK  183  A    between atoms: _466  and  _469
REMARK  184  A    between atoms: _469  and  _470
REMARK  185  A    between atoms: _475  and  _477
REMARK  186  A    between atoms: _477  and  _478
REMARK  187  A    between atoms: _480  and  _482
REMARK  188  A    between atoms: _482  and  _483
REMARK  189  A    between atoms: _482  and  _485
REMARK  190  A    between atoms: _485  and  _486
REMARK  191  A    between atoms: _486  and  _487
REMARK  192  A    between atoms: _487  and  _488
REMARK  193  A    between atoms: _488  and  _489
REMARK  194  A    between atoms: _493  and  _495
REMARK  195  A    between atoms: _495  and  _496
REMARK  196  A    between atoms: _495  and  _498
REMARK  197  A    between atoms: _498  and  _499
REMARK  198  A    between atoms: _499  and  _500
REMARK  199  A    between atoms: _500  and  _501
REMARK  200  A    between atoms: _510  and  _512
REMARK  201  A    between atoms: _512  and  _513
REMARK  202  A    between atoms: _512  and  _515
REMARK  203  A    between atoms: _515  and  _516
REMARK  204  A    between atoms: _521  and  _522
REMARK  205  A    between atoms: _524  and  _526
REMARK  206  A    between atoms: _526  and  _527
REMARK  207  A    between atoms: _526  and  _529
REMARK  208  A    between atoms: _529  and  _530
REMARK  209  A    between atoms: _530  and  _531
REMARK  210  A    between atoms: _531  and  _532
REMARK  211  A    between atoms: _532  and  _533
REMARK  212  A    between atoms: _537  and  _539
REMARK  213  A    between atoms: _539  and  _540
REMARK  214  A    between atoms: _539  and  _542
REMARK  215  A    between atoms: _542  and  _543
REMARK  216  A    between atoms: _545  and  _547
REMARK  217  A    between atoms: _547  and  _548
REMARK  218  A    between atoms: _547  and  _550
REMARK  219  A    between atoms: _550  and  _551
REMARK  220  A    between atoms: _554  and  _556
REMARK  221  A    between atoms: _556  and  _557
REMARK  222  A    between atoms: _556  and  _559
REMARK  223  A    between atoms: _559  and  _560
REMARK  224  A    between atoms: _560  and  _561
REMARK  225  A    between atoms: _564  and  _566
REMARK  226  A    between atoms: _566  and  _567
REMARK  227  A    between atoms: _570  and  _572
REMARK  228  A    between atoms: _572  and  _573
REMARK  229  A    between atoms: _572  and  _575
REMARK  230  A    between atoms: _575  and  _576
REMARK  231  A    between atoms: _578  and  _580
REMARK  232  A    between atoms: _580  and  _581
REMARK  233  A    between atoms: _583  and  _585
REMARK  234  A    between atoms: _585  and  _586
REMARK  235  A    between atoms: _585  and  _588
REMARK  236  A    between atoms: _588  and  _589
REMARK  237  A    between atoms: _592  and  _594
REMARK  238  A    between atoms: _594  and  _595
REMARK  239  A    between atoms: _597  and  _599
REMARK  240  A    between atoms: _599  and  _600
REMARK  241  A    between atoms: _599  and  _602
REMARK  242  A    between atoms: _602  and  _603
REMARK  243  A    between atoms: _608  and  _610
REMARK  244  A    between atoms: _610  and  _611
REMARK  245  A    between atoms: _610  and  _613
REMARK  246  A    between atoms: _613  and  _614
REMARK  247  A    between atoms: _614  and  _615
REMARK  248  A    between atoms: _622  and  _623
REMARK  249  A    between atoms: _623  and  _639
REMARK  250  A    between atoms: _624  and  _626
REMARK  251  A    between atoms: _626  and  _627
REMARK  252  A    between atoms: _627  and  _628
REMARK  253  A    between atoms: _632  and  _634
REMARK  254  A    between atoms: _634  and  _635
REMARK  255  A    between atoms: _634  and  _642
REMARK  256  A    between atoms: _635  and  _636
REMARK  257  A    between atoms: _636  and  _637
REMARK  258  A    between atoms: _637  and  _638
REMARK  259  A    between atoms: _638  and  _639
REMARK  260  A    between atoms: _644  and  _646
REMARK  261  A    between atoms: _646  and  _647
REMARK  262  A    between atoms: _646  and  _649
REMARK  263  A    between atoms: _649  and  _650
REMARK  264  A    between atoms: _653  and  _655
REMARK  265  A    between atoms: _655  and  _656
REMARK  266  A    between atoms: _658  and  _660
REMARK  267  A    between atoms: _660  and  _661
REMARK  268  A    between atoms: _664  and  _666
REMARK  269  A    between atoms: _666  and  _667
REMARK  270  A    between atoms: _666  and  _669
REMARK  271  A    between atoms: _669  and  _670
REMARK  272  A    between atoms: _675  and  _676
REMARK                            x       y       z     vdW  Elec       q    Type
REMARK                         _______ _______ _______ _____ _____    ______ ____
ROOT
ATOM      1  CA  GLY A   7      24.012  22.405  23.963  0.00  0.00    +0.176 C 
ENDROOT
BRANCH   1   2
ATOM      2  C   GLY A   7      23.522  22.087  22.558  0.00  0.00    +0.243 C 
ATOM      3  O   GLY A   7      22.323  21.874  22.338  0.00  0.00    -0.273 OA
ATOM      4  N   ASN A   8      24.457  22.041  21.610  0.00  0.00    -0.297 N 
ATOM      5  H   ASN A   8      25.435  22.297  21.855  0.00  0.00    +0.150 HD
BRANCH   4   6
ATOM      6  CA  ASN A   8      24.151  21.640  20.228  0.00  0.00    +0.158 C 
BRANCH   6   7
ATOM      7  C   ASN A   8      23.360  20.323  20.103  0.00  0.00    +0.241 C 
ATOM      8  N   MET A   9      23.771  19.322  20.878  0.00  0.00    -0.297 N 
ATOM      9  H   MET A   9      24.581  19.480  21.511  0.00  0.00    +0.150 HD
ATOM     10  O   ASN A   8      22.394  20.231  19.328  0.00  0.00    -0.273 OA
BRANCH   8  11
ATOM     11  CA  MET A   9      23.127  18.009  20.873  0.00  0.00    +0.149 C 
BRANCH  11  12
ATOM     12  C   MET A   9      21.720  18.033  21.462  0.00  0.00    +0.241 C 
ATOM     13  N   UNK A  10      21.527  18.811  22.532  0.00  0.00    -0.298 N 
ATOM     14  H   UNK A  10      22.345  19.309  22.938  0.00  0.00    +0.150 HD
ATOM     15  O   MET A   9      20.828  17.355  20.949  0.00  0.00    -0.273 OA
BRANCH  13  16
ATOM     16  C   UNK A  10      20.212  18.993  23.159  0.00  0.00    +0.137 C 
BRANCH  16  17
ATOM     17  C   UNK A  10      19.181  19.559  22.177  0.00  0.00    +0.227 C 
ATOM     18  O   UNK A  10      18.023  19.118  22.150  0.00  0.00    -0.286 OA
ENDBRANCH  16  17
BRANCH  16  19
ATOM     19  C   UNK A  10      20.320  19.925  24.376  0.00  0.00    +0.028 C 
BRANCH  19  20
ATOM     20  C   UNK A  10      21.389  19.534  25.404  0.00  0.00    -0.000 C 
BRANCH  20  21
ATOM     21  C   UNK A  10      21.511  20.589  26.516  0.00  0.00    -0.023 C 
BRANCH  21  22
ATOM     22  C   UNK A  10      22.711  20.318  27.410  0.00  0.00    -0.081 C 
BRANCH  22  23
ATOM     23  N   UNK A  10      22.981  21.457  28.363  0.00  0.00    +0.387 N 
ATOM     24  H   UNK A  10      22.205  22.146  28.299  0.00  0.00    -0.084 HD
ATOM     25  H   UNK A  10      23.034  21.085  29.333  0.00  0.00    -0.084 HD
BRANCH  23  26
ATOM     26  C   UNK A  10      24.138  22.067  28.061  0.00  0.00    -0.051 C 
BRANCH  26  27
ATOM     27  C   UNK A  10      24.373  23.318  28.893  0.00  0.00    -0.007 C 
ATOM     28  C   UNK A  10      25.508  24.123  28.678  0.00  0.00    +0.023 C 
ATOM     29  C   UNK A  10      25.719  25.274  29.428  0.00  0.00    +0.091 C 
ATOM     30  N   UNK A  10      24.815  25.622  30.411  0.00  0.00    -0.263 NA
ATOM     31  C   UNK A  10      23.699  24.838  30.649  0.00  0.00    +0.164 C 
ATOM     32  C   UNK A  10      22.744  25.230  31.736  0.00  0.00    +0.035 C 
ATOM     33  C   UNK A  10      23.473  23.678  29.902  0.00  0.00    +0.189 C 
ATOM     34  O   UNK A  10      22.464  22.988  30.126  0.00  0.00    -0.290 OA
BRANCH  28  35
ATOM     35  C   UNK A  10      26.494  23.813  27.586  0.00  0.00    +0.181 C 
BRANCH  35  36
ATOM     36  O   UNK A  10      26.087  24.415  26.326  0.00  0.00    -0.265 OA
BRANCH  36  37
ATOM     37  P   UNK A  10      27.134  24.740  25.138  0.00  0.00    +0.533 P 
ATOM     38  O   UNK A  10      27.670  23.413  24.725  0.00  0.00    -0.115 OA
ATOM     39  O   UNK A  10      28.169  25.593  25.772  0.00  0.00    -0.115 OA
ATOM     40  O   UNK A  10      26.242  25.438  24.189  0.00  0.00    -0.222 OA
ENDBRANCH  36  37
ENDBRANCH  35  36
ENDBRANCH  28  35
ENDBRANCH  26  27
ENDBRANCH  23  26
ENDBRANCH  22  23
ENDBRANCH  21  22
ENDBRANCH  20  21
ENDBRANCH  19  20
ENDBRANCH  16  19
ENDBRANCH  13  16
ENDBRANCH  11  12
BRANCH  11  41
ATOM     41  CB  MET A   9      23.989  16.994  21.618  0.00  0.00    +0.041 C 
BRANCH  41  42
ATOM     42  CG  MET A   9      25.387  16.875  21.053  0.00  0.00    +0.060 C 
BRANCH  42  43
ATOM     43  SD  MET A   9      26.426  15.987  22.201  0.00  0.00    -0.139 S 
ATOM     44  CE  MET A   9      28.033  16.205  21.445  0.00  0.00    +0.069 C 
ENDBRANCH  42  43
ENDBRANCH  41  42
ENDBRANCH  11  41
ENDBRANCH   8  11
ENDBRANCH   6   7
BRANCH   6  45
ATOM     45  CB  ASN A   8      25.410  21.637  19.325  0.00  0.00    +0.114 C 
BRANCH  45  46
ATOM     46  CG  ASN A   8      26.596  20.813  19.882  0.00  0.00    +0.222 C 
ATOM     47  ND2 ASN A   8      26.406  20.120  20.995  0.00  0.00    -0.329 N 
ATOM     48 HD21 ASN A   8      25.482  20.144  21.471  0.00  0.00    +0.145 HD
ATOM     49 HD22 ASN A   8      27.181  19.552  21.392  0.00  0.00    +0.145 HD
ATOM     50  OD1 ASN A   8      27.687  20.812  19.279  0.00  0.00    -0.275 OA
ENDBRANCH  45  46
ENDBRANCH   6  45
ENDBRANCH   4   6
ENDBRANCH   1   2
BRANCH   1  52
ATOM     51  C   THR A   6      25.353  20.370  24.096  0.00  0.00    +0.243 C 
ATOM     52  N   GLY A   7      25.266  21.694  24.238  0.00  0.00    -0.295 N 
ATOM     53  H   GLY A   7      26.101  22.231  24.549  0.00  0.00    +0.150 HD
ATOM     54  O   THR A   6      24.370  19.651  23.862  0.00  0.00    -0.273 OA
BRANCH  51  55
ATOM     55  CA  THR A   6      26.745  19.757  24.236  0.00  0.00    +0.176 C 
BRANCH  55  57
ATOM     56  C   GLY A   5      28.790  20.455  23.080  0.00  0.00    +0.243 C 
ATOM     57  N   THR A   6      27.770  20.740  23.884  0.00  0.00    -0.295 N 
ATOM     58  H   THR A   6      27.698  21.700  24.278  0.00  0.00    +0.150 HD
ATOM     59  O   GLY A   5      29.073  19.296  22.718  0.00  0.00    -0.273 OA
BRANCH  56  60
ATOM     60  CA  GLY A   5      29.659  21.626  22.660  0.00  0.00    +0.176 C 
BRANCH  60  62
ATOM     61  C   SER A   4      31.446  20.576  21.372  0.00  0.00    +0.243 C 
ATOM     62  N   GLY A   5      31.026  21.131  22.507  0.00  0.00    -0.295 N 
ATOM     63  H   GLY A   5      31.687  21.215  23.305  0.00  0.00    +0.150 HD
ATOM     64  O   SER A   4      30.853  20.693  20.293  0.00  0.00    -0.273 OA
BRANCH  61  65
ATOM     65  CA  SER A   4      32.737  19.789  21.463  0.00  0.00    +0.178 C 
BRANCH  65  67
ATOM     66  C   ALA A   3      35.034  20.555  21.326  0.00  0.00    +0.241 C 
ATOM     67  N   SER A   4      33.835  20.641  21.903  0.00  0.00    -0.295 N 
ATOM     68  H   SER A   4      33.682  21.322  22.674  0.00  0.00    +0.150 HD
ATOM     69  O   ALA A   3      35.292  19.730  20.441  0.00  0.00    -0.273 OA
BRANCH  66  70
ATOM     70  CA  ALA A   3      36.100  21.557  21.799  0.00  0.00    +0.149 C 
ATOM     71  CB  ALA A   3      36.663  21.149  23.158  0.00  0.00    +0.031 C 
BRANCH  70  73
ATOM     72  C   GLU A   2      35.053  23.511  20.757  0.00  0.00    +0.241 C 
ATOM     73  N   ALA A   3      35.598  22.938  21.836  0.00  0.00    -0.297 N 
ATOM     74  H   ALA A   3      35.668  23.481  22.720  0.00  0.00    +0.150 HD
ATOM     75  O   GLU A   2      34.842  22.904  19.714  0.00  0.00    -0.273 OA
BRANCH  72  76
ATOM     76  CA  GLU A   2      34.694  24.984  20.844  0.00  0.00    +0.149 C 
BRANCH  76  79
ATOM     77  C   THR A   1      36.754  26.207  20.396  0.00  0.00    +0.241 C 
ATOM     78  O   THR A   1      37.091  26.116  21.575  0.00  0.00    -0.274 OA
ATOM     79  N   GLU A   2      35.590  25.729  19.950  0.00  0.00    -0.297 N 
ATOM     80  H   GLU A   2      35.315  25.886  18.959  0.00  0.00    +0.150 HD
BRANCH  77  81
ATOM     81  CA  THR A   1      37.673  26.915  19.395  0.00  0.00    +0.172 C 
BRANCH  81  82
ATOM     82  N   THR A   1      37.697  26.350  18.030  0.00  0.00    -0.236 NA
ATOM     83  H   THR A   1      36.872  26.468  17.407  0.00  0.00    +0.142 HD
ENDBRANCH  81  82
BRANCH  81  84
ATOM     84  CB  THR A   1      37.358  28.429  19.401  0.00  0.00    +0.135 C 
ATOM     85  CG2 THR A   1      38.376  29.201  18.562  0.00  0.00    +0.034 C 
BRANCH  84  86
ATOM     86  OG1 THR A   1      36.045  28.653  18.883  0.00  0.00    -0.383 OA
ATOM     87  HG1 THR A   1      35.995  28.312  17.955  0.00  0.00    +0.210 HD
ENDBRANCH  84  86
ENDBRANCH  81  84
ENDBRANCH  77  81
ENDBRANCH  76  79
BRANCH  76  88
ATOM     88  CB  GLU A   2      33.220  25.188  20.454  0.00  0.00    +0.041 C 
BRANCH  88  89
ATOM     89  CG  GLU A   2      32.210  24.636  21.470  0.00  0.00    +0.116 C 
BRANCH  89  90
ATOM     90  CD  GLU A   2      31.997  25.572  22.648  0.00  0.00    +0.365 C 
ATOM     91  OE2 GLU A   2      32.669  25.374  23.681  0.00  0.00    -0.246 OA
ATOM     92  OE1 GLU A   2      31.173  26.514  22.540  0.00  0.00    -0.246 OA
ENDBRANCH  89  90
ENDBRANCH  88  89
ENDBRANCH  76  88
ENDBRANCH  72  76
ENDBRANCH  70  73
ENDBRANCH  66  70
ENDBRANCH  65  67
BRANCH  65  93
ATOM     93  CB  SER A   4      32.567  18.601  22.413  0.00  0.00    +0.166 C 
BRANCH  93  94
ATOM     94  OG  SER A   4      31.375  17.887  22.129  0.00  0.00    -0.380 OA
ATOM     95  H   SER A   4      30.597  18.491  22.233  0.00  0.00    +0.211 HD
ENDBRANCH  93  94
ENDBRANCH  65  93
ENDBRANCH  61  65
ENDBRANCH  60  62
ENDBRANCH  56  60
ENDBRANCH  55  57
BRANCH  55  96
ATOM     96  CB  THR A   6      26.905  19.202  25.665  0.00  0.00    +0.137 C 
ATOM     97  CG2 THR A   6      28.147  18.312  25.787  0.00  0.00    +0.034 C 
BRANCH  96  98
ATOM     98  OG1 THR A   6      26.993  20.293  26.587  0.00  0.00    -0.382 OA
ATOM     99  HG1 THR A   6      27.096  19.939  27.506  0.00  0.00    +0.210 HD
ENDBRANCH  96  98
ENDBRANCH  55  96
ENDBRANCH  51  55
ENDBRANCH   1  52
TORSDOF 44
REMARK  Name = ../refined-set-2016/3l7a/3l7a_pocket.pdb
REMARK  272 active torsions:
REMARK  status: ('A' for Active; 'I' for Inactive)
REMARK    1  A    between atoms: _1  and  _3
REMARK    2  A    between atoms: _3  and  _4
REMARK    3  A    between atoms: _3  and  _6
REMARK    4  A    between atoms: _6  and  _7
REMARK    5  A    between atoms: _12  and  _13
REMARK    6  A    between atoms: _15  and  _17
REMARK    7  A    between atoms: _17  and  _18
REMARK    8  A    between atoms: _17  and  _20
REMARK    9  A    between atoms: _20  and  _21
REMARK   10  A    between atoms: _24  and  _26
REMARK   11  A    between atoms: _26  and  _27
REMARK   12  A    between atoms: _26  and  _29
REMARK   13  A    between atoms: _29  and  _30
REMARK   14  A    between atoms: _30  and  _31
REMARK   15  A    between atoms: _34  and  _36
REMARK   16  A    between atoms: _36  and  _37
REMARK   17  A    between atoms: _36  and  _39
REMARK   18  A    between atoms: _39  and  _40
REMARK   19  A    between atoms: _45  and  _46
REMARK   20  A    between atoms: _48  and  _50
REMARK   21  A    between atoms: _50  and  _51
REMARK   22  A    between atoms: _50  and  _53
REMARK   23  A    between atoms: _53  and  _54
REMARK   24  A    between atoms: _59  and  _61
REMARK   25  A    between atoms: _61  and  _62
REMARK   26  A    between atoms: _64  and  _66
REMARK   27  A    between atoms: _66  and  _67
REMARK   28  A    between atoms: _69  and  _71
REMARK   29  A    between atoms: _71  and  _72
REMARK   30  A    between atoms: _71  and  _74
REMARK   31  A    between atoms: _74  and  _75
REMARK   32  A    between atoms: _78  and  _80
REMARK   33  A    between atoms: _80  and  _81
REMARK   34  A    between atoms: _83  and  _85
REMARK   35  A    between atoms: _85  and  _86
REMARK   36  A    between atoms: _85  and  _88
REMARK   37  A    between atoms: _88  and  _89
REMARK   38  A    between atoms: _89  and  _90
REMARK   39  A    between atoms: _90  and  _91
REMARK   40  A    between atoms: _100  and  _102
REMARK   41  A    between atoms: _102  and  _103
REMARK   42  A    between atoms: _102  and  _105
REMARK   43  A    between atoms: _105  and  _106
REMARK   44  A    between atoms: _109  and  _111
REMARK   45  A    between atoms: _111  and  _112
REMARK   46  A    between atoms: _115  and  _117
REMARK   47  A    between atoms: _117  and  _118
REMARK   48  A    between atoms: _117  and  _120
REMARK   49  A    between atoms: _120  and  _121
REMARK   50  A    between atoms: _127  and  _129
REMARK   51  A    between atoms: _129  and  _130
REMARK   52  A    between atoms: _129  and  _132
REMARK   53  A    between atoms: _132  and  _133
REMARK   54  A    between atoms: _138  and  _139
REMARK   55  A    between atoms: _142  and  _143
REMARK   56  A    between atoms: _148  and  _150
REMARK   57  A    between atoms: _150  and  _151
REMARK   58  A    between atoms: _150  and  _153
REMARK   59  A    between atoms: _153  and  _154
REMARK   60  A    between atoms: _159  and  _161
REMARK   61  A    between atoms: _161  and  _162
REMARK   62  A    between atoms: _161  and  _164
REMARK   63  A    between atoms: _164  and  _165
REMARK   64  A    between atoms: _168  and  _170
REMARK   65  A    between atoms: _170  and  _171
REMARK   66  A    between atoms: _170  and  _173
REMARK   67  A    between atoms: _173  and  _174
REMARK   68  A    between atoms: _179  and  _181
REMARK   69  A    between atoms: _181  and  _182
REMARK   70  A    between atoms: _181  and  _184
REMARK   71  A    between atoms: _184  and  _185
REMARK   72  A    between atoms: _191  and  _193
REMARK   73  A    between atoms: _193  and  _194
REMARK   74  A    between atoms: _193  and  _196
REMARK   75  A    between atoms: _196  and  _197
REMARK   76  A    between atoms: _203  and  _205
REMARK   77  A    between atoms: _205  and  _206
REMARK   78  A    between atoms: _205  and  _208
REMARK   79  A    between atoms: _208  and  _209
REMARK   80  A    between atoms: _209  and  _210
REMARK   81  A    between atoms: _213  and  _215
REMARK   82  A    between atoms: _215  and  _216
REMARK   83  A    between atoms: _218  and  _220
REMARK   84  A    between atoms: _220  and  _221
REMARK   85  A    between atoms: _220  and  _223
REMARK   86  A    between atoms: _223  and  _224
REMARK   87  A    between atoms: _224  and  _225
REMARK   88  A    between atoms: _225  and  _226
REMARK   89  A    between atoms: _235  and  _237
REMARK   90  A    between atoms: _237  and  _238
REMARK   91  A    between atoms: _237  and  _240
REMARK   92  A    between atoms: _240  and  _241
REMARK   93  A    between atoms: _241  and  _242
REMARK   94  A    between atoms: _245  and  _247
REMARK   95  A    between atoms: _247  and  _248
REMARK   96  A    between atoms: _247  and  _250
REMARK   97  A    between atoms: _250  and  _251
REMARK   98  A    between atoms: _256  and  _258
REMARK   99  A    between atoms: _258  and  _259
REMARK  100  A    between atoms: _258  and  _261
REMARK  101  A    between atoms: _261  and  _262
REMARK  102  A    between atoms: _265  and  _267
REMARK  103  A    between atoms: _267  and  _268
REMARK  104  A    between atoms: _267  and  _270
REMARK  105  A    between atoms: _270  and  _271
REMARK  106  A    between atoms: _274  and  _276
REMARK  107  A    between atoms: _276  and  _277
REMARK  108  A    between atoms: _276  and  _279
REMARK  109  A    between atoms: _279  and  _280
REMARK  110  A    between atoms: _285  and  _287
REMARK  111  A    between atoms: _287  and  _288
REMARK  112  A    between atoms: _287  and  _290
REMARK  113  A    between atoms: _290  and  _291
REMARK  114  A    between atoms: _294  and  _296
REMARK  115  A    between atoms: _296  and  _297
REMARK  116  A    between atoms: _296  and  _299
REMARK  117  A    between atoms: _299  and  _300
REMARK  118  A    between atoms: _305  and  _307
REMARK  119  A    between atoms: _307  and  _308
REMARK  120  A    between atoms: _307  and  _310
REMARK  121  A    between atoms: _310  and  _311
REMARK  122  A    between atoms: _316  and  _318
REMARK  123  A    between atoms: _318  and  _319
REMARK  124  A    between atoms: _318  and  _321
REMARK  125  A    between atoms: _321  and  _322
REMARK  126  A    between atoms: _325  and  _327
REMARK  127  A    between atoms: _327  and  _328
REMARK  128  A    between atoms: _327  and  _330
REMARK  129  A    between atoms: _333  and  _335
REMARK  130  A    between atoms: _335  and  _336
REMARK  131  A    between atoms: _335  and  _338
REMARK  132  A    between atoms: _338  and  _339
REMARK  133  A    between atoms: _342  and  _344
REMARK  134  A    between atoms: _344  and  _345
REMARK  135  A    between atoms: _344  and  _347
REMARK  136  A    between atoms: _347  and  _348
REMARK  137  A    between atoms: _348  and  _349
REMARK  138  A    between atoms: _352  and  _354
REMARK  139  A    between atoms: _354  and  _355
REMARK  140  A    between atoms: _358  and  _360
REMARK  141  A    between atoms: _360  and  _361
REMARK  142  A    between atoms: _360  and  _363
REMARK  143  A    between atoms: _363  and  _364
REMARK  144  A    between atoms: _367  and  _369
REMARK  145  A    between atoms: _369  and  _370
REMARK  146  A    between atoms: _369  and  _372
REMARK  147  A    between atoms: _372  and  _373
REMARK  148  A    between atoms: _373  and  _374
REMARK  149  A    between atoms: _377  and  _379
REMARK  150  A    between atoms: _379  and  _380
REMARK  151  A    between atoms: _379  and  _382
REMARK  152  A    between atoms: _382  and  _383
REMARK  153  A    between atoms: _383  and  _384
REMARK  154  A    between atoms: _384  and  _385
REMARK  155  A    between atoms: _394  and  _396
REMARK  156  A    between atoms: _396  and  _397
REMARK  157  A    between atoms: _396  and  _399
REMARK  158  A    between atoms: _399  and  _400
REMARK  159  A    between atoms: _410  and  _412
REMARK  160  A    between atoms: _412  and  _413
REMARK  161  A    between atoms: _412  and  _415
REMARK  162  A    between atoms: _415  and  _416
REMARK  163  A    between atoms: _421  and  _423
REMARK  164  A    between atoms: _423  and  _424
REMARK  165  A    between atoms: _426  and  _428
REMARK  166  A    between atoms: _428  and  _429
REMARK  167  A    between atoms: _428  and  _431
REMARK  168  A    between atoms: _434  and  _436
REMARK  169  A    between atoms: _436  and  _437
REMARK  170  A    between atoms: _440  and  _442
REMARK  171  A    between atoms: _442  and  _443
REMARK  172  A    between atoms: _442  and  _445
REMARK  173  A    between atoms: _445  and  _446
REMARK  174  A    between atoms: _451  and  _453
REMARK  175  A    between atoms: _453  and  _454
REMARK  176  A    between atoms: _453  and  _456
REMARK  177  A    between atoms: _456  and  _457
REMARK  178  A    between atoms: _457  and  _458
REMARK  179  A    between atoms: _458  and  _459
REMARK  180  A    between atoms: _459  and  _460
REMARK  181  A    between atoms: _464  and  _466
REMARK  182  A    between atoms: _466  and  _467
REMARK  183  A    between atoms: _466  and  _469
REMARK  184  A    between atoms: _469  and  _470
REMARK  185  A    between atoms: _475  and  _477
REMARK  186  A    between atoms: _477  and  _478
REMARK  187  A    between atoms: _480  and  _482
REMARK  188  A    between atoms: _482  and  _483
REMARK  189  A    between atoms: _482  and  _485
REMARK  190  A    between atoms: _485  and  _486
REMARK  191  A    between atoms: _486  and  _487
REMARK  192  A    between atoms: _487  and  _488
REMARK  193  A    between atoms: _488  and  _489
REMARK  194  A    between atoms: _493  and  _495
REMARK  195  A    between atoms: _495  and  _496
REMARK  196  A    between atoms: _495  and  _498
REMARK  197  A    between atoms: _498  and  _499
REMARK  198  A    between atoms: _499  and  _500
REMARK  199  A    between atoms: _500  and  _501
REMARK  200  A    between atoms: _510  and  _512
REMARK  201  A    between atoms: _512  and  _513
REMARK  202  A    between atoms: _512  and  _515
REMARK  203  A    between atoms: _515  and  _516
REMARK  204  A    between atoms: _521  and  _522
REMARK  205  A    between atoms: _524  and  _526
REMARK  206  A    between atoms: _526  and  _527
REMARK  207  A    between atoms: _526  and  _529
REMARK  208  A    between atoms: _529  and  _530
REMARK  209  A    between atoms: _530  and  _531
REMARK  210  A    between atoms: _531  and  _532
REMARK  211  A    between atoms: _532  and  _533
REMARK  212  A    between atoms: _537  and  _539
REMARK  213  A    between atoms: _539  and  _540
REMARK  214  A    between atoms: _539  and  _542
REMARK  215  A    between atoms: _542  and  _543
REMARK  216  A    between atoms: _545  and  _547
REMARK  217  A    between atoms: _547  and  _548
REMARK  218  A    between atoms: _547  and  _550
REMARK  219  A    between atoms: _550  and  _551
REMARK  220  A    between atoms: _554  and  _556
REMARK  221  A    between atoms: _556  and  _557
REMARK  222  A    between atoms: _556  and  _559
REMARK  223  A    between atoms: _559  and  _560
REMARK  224  A    between atoms: _560  and  _561
REMARK  225  A    between atoms: _564  and  _566
REMARK  226  A    between atoms: _566  and  _567
REMARK  227  A    between atoms: _570  and  _572
REMARK  228  A    between atoms: _572  and  _573
REMARK  229  A    between atoms: _572  and  _575
REMARK  230  A    between atoms: _575  and  _576
REMARK  231  A    between atoms: _578  and  _580
REMARK  232  A    between atoms: _580  and  _581
REMARK  233  A    between atoms: _583  and  _585
REMARK  234  A    between atoms: _585  and  _586
REMARK  235  A    between atoms: _585  and  _588
REMARK  236  A    between atoms: _588  and  _589
REMARK  237  A    between atoms: _592  and  _594
REMARK  238  A    between atoms: _594  and  _595
REMARK  239  A    between atoms: _597  and  _599
REMARK  240  A    between atoms: _599  and  _600
REMARK  241  A    between atoms: _599  and  _602
REMARK  242  A    between atoms: _602  and  _603
REMARK  243  A    between atoms: _608  and  _610
REMARK  244  A    between atoms: _610  and  _611
REMARK  245  A    between atoms: _610  and  _613
REMARK  246  A    between atoms: _613  and  _614
REMARK  247  A    between atoms: _614  and  _615
REMARK  248  A    between atoms: _622  and  _623
REMARK  249  A    between atoms: _623  and  _639
REMARK  250  A    between atoms: _624  and  _626
REMARK  251  A    between atoms: _626  and  _627
REMARK  252  A    between atoms: _627  and  _628
REMARK  253  A    between atoms: _632  and  _634
REMARK  254  A    between atoms: _634  and  _635
REMARK  255  A    between atoms: _634  and  _642
REMARK  256  A    between atoms: _635  and  _636
REMARK  257  A    between atoms: _636  and  _637
REMARK  258  A    between atoms: _637  and  _638
REMARK  259  A    between atoms: _638  and  _639
REMARK  260  A    between atoms: _644  and  _646
REMARK  261  A    between atoms: _646  and  _647
REMARK  262  A    between atoms: _646  and  _649
REMARK  263  A    between atoms: _649  and  _650
REMARK  264  A    between atoms: _653  and  _655
REMARK  265  A    between atoms: _655  and  _656
REMARK  266  A    between atoms: _658  and  _660
REMARK  267  A    between atoms: _660  and  _661
REMARK  268  A    between atoms: _664  and  _666
REMARK  269  A    between atoms: _666  and  _667
REMARK  270  A    between atoms: _666  and  _669
REMARK  271  A    between atoms: _669  and  _670
REMARK  272  A    between atoms: _675  and  _676
REMARK                            x       y       z     vdW  Elec       q    Type
REMARK                         _______ _______ _______ _____ _____    ______ ____
ROOT
ATOM      1  C   ASP A   1      32.985  22.199  15.901  0.00  0.00    +0.239 C 
ATOM      2  N   GLY A   2      33.884  21.672  16.730  0.00  0.00    -0.296 N 
ATOM      3  H   GLY A   2      34.876  21.975  16.659  0.00  0.00    +0.150 HD
ATOM      4  O   ASP A   1      31.791  21.873  15.896  0.00  0.00    -0.274 OA
ENDROOT
BRANCH   1   5
ATOM      5  CA  ASP A   1      33.500  23.234  14.910  0.00  0.00    +0.156 C 
BRANCH   5   6
ATOM      6  N   ASP A   1      32.728  23.167  13.671  0.00  0.00    -0.238 NA
ATOM      7  H   ASP A   1      31.691  23.126  13.734  0.00  0.00    +0.142 HD
ENDBRANCH   5   6
BRANCH   5   8
ATOM      8  CB  ASP A   1      33.403  24.634  15.528  0.00  0.00    +0.140 C 
BRANCH   8   9
ATOM      9  CG  ASP A   1      34.507  24.908  16.537  0.00  0.00    +0.367 C 
ATOM     10  OD2 ASP A   1      34.340  25.840  17.348  0.00  0.00    -0.246 OA
ATOM     11  OD1 ASP A   1      35.536  24.186  16.522  0.00  0.00    -0.246 OA
ENDBRANCH   8   9
ENDBRANCH   5   8
ENDBRANCH   1   5
BRANCH   2  12
ATOM     12  CA  GLY A   2      33.514  20.677  17.740  0.00  0.00    +0.176 C 
BRANCH  12  13
ATOM     13  C   GLY A   2      32.642  19.556  17.202  0.00  0.00    +0.243 C 
ATOM     14  N   ALA A   3      31.609  19.202  17.960  0.00  0.00    -0.298 N 
ATOM     15  H   ALA A   3      31.424  19.719  18.843  0.00  0.00    +0.150 HD
ATOM     16  O   GLY A   2      32.887  19.032  16.110  0.00  0.00    -0.273 OA
BRANCH  14  17
ATOM     17  CA  ALA A   3      30.729  18.101  17.577  0.00  0.00    +0.137 C 
ATOM     18  CB  ALA A   3      29.947  17.588  18.785  0.00  0.00    +0.030 C 
BRANCH  17  19
ATOM     19  C   ALA A   3      29.771  18.456  16.424  0.00  0.00    +0.227 C 
ATOM     20  O   ALA A   3      29.126  17.552  15.876  0.00  0.00    -0.286 OA
ENDBRANCH  17  19
ENDBRANCH  14  17
ENDBRANCH  12  13
ENDBRANCH   2  12
TORSDOF 8
REMARK  Name = ../refined-set-2016/3l7a/3l7a_pocket.pdb
REMARK  272 active torsions:
REMARK  status: ('A' for Active; 'I' for Inactive)
REMARK    1  A    between atoms: _1  and  _3
REMARK    2  A    between atoms: _3  and  _4
REMARK    3  A    between atoms: _3  and  _6
REMARK    4  A    between atoms: _6  and  _7
REMARK    5  A    between atoms: _12  and  _13
REMARK    6  A    between atoms: _15  and  _17
REMARK    7  A    between atoms: _17  and  _18
REMARK    8  A    between atoms: _17  and  _20
REMARK    9  A    between atoms: _20  and  _21
REMARK   10  A    between atoms: _24  and  _26
REMARK   11  A    between atoms: _26  and  _27
REMARK   12  A    between atoms: _26  and  _29
REMARK   13  A    between atoms: _29  and  _30
REMARK   14  A    between atoms: _30  and  _31
REMARK   15  A    between atoms: _34  and  _36
REMARK   16  A    between atoms: _36  and  _37
REMARK   17  A    between atoms: _36  and  _39
REMARK   18  A    between atoms: _39  and  _40
REMARK   19  A    between atoms: _45  and  _46
REMARK   20  A    between atoms: _48  and  _50
REMARK   21  A    between atoms: _50  and  _51
REMARK   22  A    between atoms: _50  and  _53
REMARK   23  A    between atoms: _53  and  _54
REMARK   24  A    between atoms: _59  and  _61
REMARK   25  A    between atoms: _61  and  _62
REMARK   26  A    between atoms: _64  and  _66
REMARK   27  A    between atoms: _66  and  _67
REMARK   28  A    between atoms: _69  and  _71
REMARK   29  A    between atoms: _71  and  _72
REMARK   30  A    between atoms: _71  and  _74
REMARK   31  A    between atoms: _74  and  _75
REMARK   32  A    between atoms: _78  and  _80
REMARK   33  A    between atoms: _80  and  _81
REMARK   34  A    between atoms: _83  and  _85
REMARK   35  A    between atoms: _85  and  _86
REMARK   36  A    between atoms: _85  and  _88
REMARK   37  A    between atoms: _88  and  _89
REMARK   38  A    between atoms: _89  and  _90
REMARK   39  A    between atoms: _90  and  _91
REMARK   40  A    between atoms: _100  and  _102
REMARK   41  A    between atoms: _102  and  _103
REMARK   42  A    between atoms: _102  and  _105
REMARK   43  A    between atoms: _105  and  _106
REMARK   44  A    between atoms: _109  and  _111
REMARK   45  A    between atoms: _111  and  _112
REMARK   46  A    between atoms: _115  and  _117
REMARK   47  A    between atoms: _117  and  _118
REMARK   48  A    between atoms: _117  and  _120
REMARK   49  A    between atoms: _120  and  _121
REMARK   50  A    between atoms: _127  and  _129
REMARK   51  A    between atoms: _129  and  _130
REMARK   52  A    between atoms: _129  and  _132
REMARK   53  A    between atoms: _132  and  _133
REMARK   54  A    between atoms: _138  and  _139
REMARK   55  A    between atoms: _142  and  _143
REMARK   56  A    between atoms: _148  and  _150
REMARK   57  A    between atoms: _150  and  _151
REMARK   58  A    between atoms: _150  and  _153
REMARK   59  A    between atoms: _153  and  _154
REMARK   60  A    between atoms: _159  and  _161
REMARK   61  A    between atoms: _161  and  _162
REMARK   62  A    between atoms: _161  and  _164
REMARK   63  A    between atoms: _164  and  _165
REMARK   64  A    between atoms: _168  and  _170
REMARK   65  A    between atoms: _170  and  _171
REMARK   66  A    between atoms: _170  and  _173
REMARK   67  A    between atoms: _173  and  _174
REMARK   68  A    between atoms: _179  and  _181
REMARK   69  A    between atoms: _181  and  _182
REMARK   70  A    between atoms: _181  and  _184
REMARK   71  A    between atoms: _184  and  _185
REMARK   72  A    between atoms: _191  and  _193
REMARK   73  A    between atoms: _193  and  _194
REMARK   74  A    between atoms: _193  and  _196
REMARK   75  A    between atoms: _196  and  _197
REMARK   76  A    between atoms: _203  and  _205
REMARK   77  A    between atoms: _205  and  _206
REMARK   78  A    between atoms: _205  and  _208
REMARK   79  A    between atoms: _208  and  _209
REMARK   80  A    between atoms: _209  and  _210
REMARK   81  A    between atoms: _213  and  _215
REMARK   82  A    between atoms: _215  and  _216
REMARK   83  A    between atoms: _218  and  _220
REMARK   84  A    between atoms: _220  and  _221
REMARK   85  A    between atoms: _220  and  _223
REMARK   86  A    between atoms: _223  and  _224
REMARK   87  A    between atoms: _224  and  _225
REMARK   88  A    between atoms: _225  and  _226
REMARK   89  A    between atoms: _235  and  _237
REMARK   90  A    between atoms: _237  and  _238
REMARK   91  A    between atoms: _237  and  _240
REMARK   92  A    between atoms: _240  and  _241
REMARK   93  A    between atoms: _241  and  _242
REMARK   94  A    between atoms: _245  and  _247
REMARK   95  A    between atoms: _247  and  _248
REMARK   96  A    between atoms: _247  and  _250
REMARK   97  A    between atoms: _250  and  _251
REMARK   98  A    between atoms: _256  and  _258
REMARK   99  A    between atoms: _258  and  _259
REMARK  100  A    between atoms: _258  and  _261
REMARK  101  A    between atoms: _261  and  _262
REMARK  102  A    between atoms: _265  and  _267
REMARK  103  A    between atoms: _267  and  _268
REMARK  104  A    between atoms: _267  and  _270
REMARK  105  A    between atoms: _270  and  _271
REMARK  106  A    between atoms: _274  and  _276
REMARK  107  A    between atoms: _276  and  _277
REMARK  108  A    between atoms: _276  and  _279
REMARK  109  A    between atoms: _279  and  _280
REMARK  110  A    between atoms: _285  and  _287
REMARK  111  A    between atoms: _287  and  _288
REMARK  112  A    between atoms: _287  and  _290
REMARK  113  A    between atoms: _290  and  _291
REMARK  114  A    between atoms: _294  and  _296
REMARK  115  A    between atoms: _296  and  _297
REMARK  116  A    between atoms: _296  and  _299
REMARK  117  A    between atoms: _299  and  _300
REMARK  118  A    between atoms: _305  and  _307
REMARK  119  A    between atoms: _307  and  _308
REMARK  120  A    between atoms: _307  and  _310
REMARK  121  A    between atoms: _310  and  _311
REMARK  122  A    between atoms: _316  and  _318
REMARK  123  A    between atoms: _318  and  _319
REMARK  124  A    between atoms: _318  and  _321
REMARK  125  A    between atoms: _321  and  _322
REMARK  126  A    between atoms: _325  and  _327
REMARK  127  A    between atoms: _327  and  _328
REMARK  128  A    between atoms: _327  and  _330
REMARK  129  A    between atoms: _333  and  _335
REMARK  130  A    between atoms: _335  and  _336
REMARK  131  A    between atoms: _335  and  _338
REMARK  132  A    between atoms: _338  and  _339
REMARK  133  A    between atoms: _342  and  _344
REMARK  134  A    between atoms: _344  and  _345
REMARK  135  A    between atoms: _344  and  _347
REMARK  136  A    between atoms: _347  and  _348
REMARK  137  A    between atoms: _348  and  _349
REMARK  138  A    between atoms: _352  and  _354
REMARK  139  A    between atoms: _354  and  _355
REMARK  140  A    between atoms: _358  and  _360
REMARK  141  A    between atoms: _360  and  _361
REMARK  142  A    between atoms: _360  and  _363
REMARK  143  A    between atoms: _363  and  _364
REMARK  144  A    between atoms: _367  and  _369
REMARK  145  A    between atoms: _369  and  _370
REMARK  146  A    between atoms: _369  and  _372
REMARK  147  A    between atoms: _372  and  _373
REMARK  148  A    between atoms: _373  and  _374
REMARK  149  A    between atoms: _377  and  _379
REMARK  150  A    between atoms: _379  and  _380
REMARK  151  A    between atoms: _379  and  _382
REMARK  152  A    between atoms: _382  and  _383
REMARK  153  A    between atoms: _383  and  _384
REMARK  154  A    between atoms: _384  and  _385
REMARK  155  A    between atoms: _394  and  _396
REMARK  156  A    between atoms: _396  and  _397
REMARK  157  A    between atoms: _396  and  _399
REMARK  158  A    between atoms: _399  and  _400
REMARK  159  A    between atoms: _410  and  _412
REMARK  160  A    between atoms: _412  and  _413
REMARK  161  A    between atoms: _412  and  _415
REMARK  162  A    between atoms: _415  and  _416
REMARK  163  A    between atoms: _421  and  _423
REMARK  164  A    between atoms: _423  and  _424
REMARK  165  A    between atoms: _426  and  _428
REMARK  166  A    between atoms: _428  and  _429
REMARK  167  A    between atoms: _428  and  _431
REMARK  168  A    between atoms: _434  and  _436
REMARK  169  A    between atoms: _436  and  _437
REMARK  170  A    between atoms: _440  and  _442
REMARK  171  A    between atoms: _442  and  _443
REMARK  172  A    between atoms: _442  and  _445
REMARK  173  A    between atoms: _445  and  _446
REMARK  174  A    between atoms: _451  and  _453
REMARK  175  A    between atoms: _453  and  _454
REMARK  176  A    between atoms: _453  and  _456
REMARK  177  A    between atoms: _456  and  _457
REMARK  178  A    between atoms: _457  and  _458
REMARK  179  A    between atoms: _458  and  _459
REMARK  180  A    between atoms: _459  and  _460
REMARK  181  A    between atoms: _464  and  _466
REMARK  182  A    between atoms: _466  and  _467
REMARK  183  A    between atoms: _466  and  _469
REMARK  184  A    between atoms: _469  and  _470
REMARK  185  A    between atoms: _475  and  _477
REMARK  186  A    between atoms: _477  and  _478
REMARK  187  A    between atoms: _480  and  _482
REMARK  188  A    between atoms: _482  and  _483
REMARK  189  A    between atoms: _482  and  _485
REMARK  190  A    between atoms: _485  and  _486
REMARK  191  A    between atoms: _486  and  _487
REMARK  192  A    between atoms: _487  and  _488
REMARK  193  A    between atoms: _488  and  _489
REMARK  194  A    between atoms: _493  and  _495
REMARK  195  A    between atoms: _495  and  _496
REMARK  196  A    between atoms: _495  and  _498
REMARK  197  A    between atoms: _498  and  _499
REMARK  198  A    between atoms: _499  and  _500
REMARK  199  A    between atoms: _500  and  _501
REMARK  200  A    between atoms: _510  and  _512
REMARK  201  A    between atoms: _512  and  _513
REMARK  202  A    between atoms: _512  and  _515
REMARK  203  A    between atoms: _515  and  _516
REMARK  204  A    between atoms: _521  and  _522
REMARK  205  A    between atoms: _524  and  _526
REMARK  206  A    between atoms: _526  and  _527
REMARK  207  A    between atoms: _526  and  _529
REMARK  208  A    between atoms: _529  and  _530
REMARK  209  A    between atoms: _530  and  _531
REMARK  210  A    between atoms: _531  and  _532
REMARK  211  A    between atoms: _532  and  _533
REMARK  212  A    between atoms: _537  and  _539
REMARK  213  A    between atoms: _539  and  _540
REMARK  214  A    between atoms: _539  and  _542
REMARK  215  A    between atoms: _542  and  _543
REMARK  216  A    between atoms: _545  and  _547
REMARK  217  A    between atoms: _547  and  _548
REMARK  218  A    between atoms: _547  and  _550
REMARK  219  A    between atoms: _550  and  _551
REMARK  220  A    between atoms: _554  and  _556
REMARK  221  A    between atoms: _556  and  _557
REMARK  222  A    between atoms: _556  and  _559
REMARK  223  A    between atoms: _559  and  _560
REMARK  224  A    between atoms: _560  and  _561
REMARK  225  A    between atoms: _564  and  _566
REMARK  226  A    between atoms: _566  and  _567
REMARK  227  A    between atoms: _570  and  _572
REMARK  228  A    between atoms: _572  and  _573
REMARK  229  A    between atoms: _572  and  _575
REMARK  230  A    between atoms: _575  and  _576
REMARK  231  A    between atoms: _578  and  _580
REMARK  232  A    between atoms: _580  and  _581
REMARK  233  A    between atoms: _583  and  _585
REMARK  234  A    between atoms: _585  and  _586
REMARK  235  A    between atoms: _585  and  _588
REMARK  236  A    between atoms: _588  and  _589
REMARK  237  A    between atoms: _592  and  _594
REMARK  238  A    between atoms: _594  and  _595
REMARK  239  A    between atoms: _597  and  _599
REMARK  240  A    between atoms: _599  and  _600
REMARK  241  A    between atoms: _599  and  _602
REMARK  242  A    between atoms: _602  and  _603
REMARK  243  A    between atoms: _608  and  _610
REMARK  244  A    between atoms: _610  and  _611
REMARK  245  A    between atoms: _610  and  _613
REMARK  246  A    between atoms: _613  and  _614
REMARK  247  A    between atoms: _614  and  _615
REMARK  248  A    between atoms: _622  and  _623
REMARK  249  A    between atoms: _623  and  _639
REMARK  250  A    between atoms: _624  and  _626
REMARK  251  A    between atoms: _626  and  _627
REMARK  252  A    between atoms: _627  and  _628
REMARK  253  A    between atoms: _632  and  _634
REMARK  254  A    between atoms: _634  and  _635
REMARK  255  A    between atoms: _634  and  _642
REMARK  256  A    between atoms: _635  and  _636
REMARK  257  A    between atoms: _636  and  _637
REMARK  258  A    between atoms: _637  and  _638
REMARK  259  A    between atoms: _638  and  _639
REMARK  260  A    between atoms: _644  and  _646
REMARK  261  A    between atoms: _646  and  _647
REMARK  262  A    between atoms: _646  and  _649
REMARK  263  A    between atoms: _649  and  _650
REMARK  264  A    between atoms: _653  and  _655
REMARK  265  A    between atoms: _655  and  _656
REMARK  266  A    between atoms: _658  and  _660
REMARK  267  A    between atoms: _660  and  _661
REMARK  268  A    between atoms: _664  and  _666
REMARK  269  A    between atoms: _666  and  _667
REMARK  270  A    between atoms: _666  and  _669
REMARK  271  A    between atoms: _669  and  _670
REMARK  272  A    between atoms: _675  and  _676
REMARK                            x       y       z     vdW  Elec       q    Type
REMARK                         _______ _______ _______ _____ _____    ______ ____
ROOT
ATOM      1  CG  TYR A   1      34.711   7.537  28.963  0.00  0.00    -0.020 A 
ATOM      2  CD2 TYR A   1      35.845   8.165  29.492  0.00  0.00    -0.001 A 
ATOM      3  CE2 TYR A   1      36.084   9.520  29.269  0.00  0.00    +0.036 A 
ATOM      4  CZ  TYR A   1      35.192  10.257  28.520  0.00  0.00    +0.134 A 
ATOM      5  CE1 TYR A   1      34.053   9.665  27.990  0.00  0.00    +0.036 A 
ATOM      6  CD1 TYR A   1      33.814   8.309  28.227  0.00  0.00    -0.001 A 
ENDROOT
BRANCH   4   7
ATOM      7  OH  TYR A   1      35.427  11.594  28.306  0.00  0.00    -0.506 OA
ATOM      8  HH  TYR A   1      35.495  11.764  27.333  0.00  0.00    +0.292 HD
ENDBRANCH   4   7
BRANCH   1   9
ATOM      9  CB  TYR A   1      34.433   6.074  29.239  0.00  0.00    +0.051 C 
BRANCH   9  10
ATOM     10  CA  TYR A   1      34.976   5.062  28.221  0.00  0.00    +0.137 C 
BRANCH  10  11
ATOM     11  N   TYR A   1      34.072   4.933  27.066  0.00  0.00    -0.239 NA
ATOM     12  H   TYR A   1      33.247   5.562  26.992  0.00  0.00    +0.142 HD
ENDBRANCH  10  11
BRANCH  10  13
ATOM     13  C   TYR A   1      35.152   3.727  28.948  0.00  0.00    +0.224 C 
ATOM     14  O   TYR A   1      36.274   3.339  29.275  0.00  0.00    -0.287 OA
ENDBRANCH  10  13
ENDBRANCH   9  10
ENDBRANCH   1   9
TORSDOF 5
REMARK  Name = ../refined-set-2016/3l7a/3l7a_pocket.pdb
REMARK  272 active torsions:
REMARK  status: ('A' for Active; 'I' for Inactive)
REMARK    1  A    between atoms: _1  and  _3
REMARK    2  A    between atoms: _3  and  _4
REMARK    3  A    between atoms: _3  and  _6
REMARK    4  A    between atoms: _6  and  _7
REMARK    5  A    between atoms: _12  and  _13
REMARK    6  A    between atoms: _15  and  _17
REMARK    7  A    between atoms: _17  and  _18
REMARK    8  A    between atoms: _17  and  _20
REMARK    9  A    between atoms: _20  and  _21
REMARK   10  A    between atoms: _24  and  _26
REMARK   11  A    between atoms: _26  and  _27
REMARK   12  A    between atoms: _26  and  _29
REMARK   13  A    between atoms: _29  and  _30
REMARK   14  A    between atoms: _30  and  _31
REMARK   15  A    between atoms: _34  and  _36
REMARK   16  A    between atoms: _36  and  _37
REMARK   17  A    between atoms: _36  and  _39
REMARK   18  A    between atoms: _39  and  _40
REMARK   19  A    between atoms: _45  and  _46
REMARK   20  A    between atoms: _48  and  _50
REMARK   21  A    between atoms: _50  and  _51
REMARK   22  A    between atoms: _50  and  _53
REMARK   23  A    between atoms: _53  and  _54
REMARK   24  A    between atoms: _59  and  _61
REMARK   25  A    between atoms: _61  and  _62
REMARK   26  A    between atoms: _64  and  _66
REMARK   27  A    between atoms: _66  and  _67
REMARK   28  A    between atoms: _69  and  _71
REMARK   29  A    between atoms: _71  and  _72
REMARK   30  A    between atoms: _71  and  _74
REMARK   31  A    between atoms: _74  and  _75
REMARK   32  A    between atoms: _78  and  _80
REMARK   33  A    between atoms: _80  and  _81
REMARK   34  A    between atoms: _83  and  _85
REMARK   35  A    between atoms: _85  and  _86
REMARK   36  A    between atoms: _85  and  _88
REMARK   37  A    between atoms: _88  and  _89
REMARK   38  A    between atoms: _89  and  _90
REMARK   39  A    between atoms: _90  and  _91
REMARK   40  A    between atoms: _100  and  _102
REMARK   41  A    between atoms: _102  and  _103
REMARK   42  A    between atoms: _102  and  _105
REMARK   43  A    between atoms: _105  and  _106
REMARK   44  A    between atoms: _109  and  _111
REMARK   45  A    between atoms: _111  and  _112
REMARK   46  A    between atoms: _115  and  _117
REMARK   47  A    between atoms: _117  and  _118
REMARK   48  A    between atoms: _117  and  _120
REMARK   49  A    between atoms: _120  and  _121
REMARK   50  A    between atoms: _127  and  _129
REMARK   51  A    between atoms: _129  and  _130
REMARK   52  A    between atoms: _129  and  _132
REMARK   53  A    between atoms: _132  and  _133
REMARK   54  A    between atoms: _138  and  _139
REMARK   55  A    between atoms: _142  and  _143
REMARK   56  A    between atoms: _148  and  _150
REMARK   57  A    between atoms: _150  and  _151
REMARK   58  A    between atoms: _150  and  _153
REMARK   59  A    between atoms: _153  and  _154
REMARK   60  A    between atoms: _159  and  _161
REMARK   61  A    between atoms: _161  and  _162
REMARK   62  A    between atoms: _161  and  _164
REMARK   63  A    between atoms: _164  and  _165
REMARK   64  A    between atoms: _168  and  _170
REMARK   65  A    between atoms: _170  and  _171
REMARK   66  A    between atoms: _170  and  _173
REMARK   67  A    between atoms: _173  and  _174
REMARK   68  A    between atoms: _179  and  _181
REMARK   69  A    between atoms: _181  and  _182
REMARK   70  A    between atoms: _181  and  _184
REMARK   71  A    between atoms: _184  and  _185
REMARK   72  A    between atoms: _191  and  _193
REMARK   73  A    between atoms: _193  and  _194
REMARK   74  A    between atoms: _193  and  _196
REMARK   75  A    between atoms: _196  and  _197
REMARK   76  A    between atoms: _203  and  _205
REMARK   77  A    between atoms: _205  and  _206
REMARK   78  A    between atoms: _205  and  _208
REMARK   79  A    between atoms: _208  and  _209
REMARK   80  A    between atoms: _209  and  _210
REMARK   81  A    between atoms: _213  and  _215
REMARK   82  A    between atoms: _215  and  _216
REMARK   83  A    between atoms: _218  and  _220
REMARK   84  A    between atoms: _220  and  _221
REMARK   85  A    between atoms: _220  and  _223
REMARK   86  A    between atoms: _223  and  _224
REMARK   87  A    between atoms: _224  and  _225
REMARK   88  A    between atoms: _225  and  _226
REMARK   89  A    between atoms: _235  and  _237
REMARK   90  A    between atoms: _237  and  _238
REMARK   91  A    between atoms: _237  and  _240
REMARK   92  A    between atoms: _240  and  _241
REMARK   93  A    between atoms: _241  and  _242
REMARK   94  A    between atoms: _245  and  _247
REMARK   95  A    between atoms: _247  and  _248
REMARK   96  A    between atoms: _247  and  _250
REMARK   97  A    between atoms: _250  and  _251
REMARK   98  A    between atoms: _256  and  _258
REMARK   99  A    between atoms: _258  and  _259
REMARK  100  A    between atoms: _258  and  _261
REMARK  101  A    between atoms: _261  and  _262
REMARK  102  A    between atoms: _265  and  _267
REMARK  103  A    between atoms: _267  and  _268
REMARK  104  A    between atoms: _267  and  _270
REMARK  105  A    between atoms: _270  and  _271
REMARK  106  A    between atoms: _274  and  _276
REMARK  107  A    between atoms: _276  and  _277
REMARK  108  A    between atoms: _276  and  _279
REMARK  109  A    between atoms: _279  and  _280
REMARK  110  A    between atoms: _285  and  _287
REMARK  111  A    between atoms: _287  and  _288
REMARK  112  A    between atoms: _287  and  _290
REMARK  113  A    between atoms: _290  and  _291
REMARK  114  A    between atoms: _294  and  _296
REMARK  115  A    between atoms: _296  and  _297
REMARK  116  A    between atoms: _296  and  _299
REMARK  117  A    between atoms: _299  and  _300
REMARK  118  A    between atoms: _305  and  _307
REMARK  119  A    between atoms: _307  and  _308
REMARK  120  A    between atoms: _307  and  _310
REMARK  121  A    between atoms: _310  and  _311
REMARK  122  A    between atoms: _316  and  _318
REMARK  123  A    between atoms: _318  and  _319
REMARK  124  A    between atoms: _318  and  _321
REMARK  125  A    between atoms: _321  and  _322
REMARK  126  A    between atoms: _325  and  _327
REMARK  127  A    between atoms: _327  and  _328
REMARK  128  A    between atoms: _327  and  _330
REMARK  129  A    between atoms: _333  and  _335
REMARK  130  A    between atoms: _335  and  _336
REMARK  131  A    between atoms: _335  and  _338
REMARK  132  A    between atoms: _338  and  _339
REMARK  133  A    between atoms: _342  and  _344
REMARK  134  A    between atoms: _344  and  _345
REMARK  135  A    between atoms: _344  and  _347
REMARK  136  A    between atoms: _347  and  _348
REMARK  137  A    between atoms: _348  and  _349
REMARK  138  A    between atoms: _352  and  _354
REMARK  139  A    between atoms: _354  and  _355
REMARK  140  A    between atoms: _358  and  _360
REMARK  141  A    between atoms: _360  and  _361
REMARK  142  A    between atoms: _360  and  _363
REMARK  143  A    between atoms: _363  and  _364
REMARK  144  A    between atoms: _367  and  _369
REMARK  145  A    between atoms: _369  and  _370
REMARK  146  A    between atoms: _369  and  _372
REMARK  147  A    between atoms: _372  and  _373
REMARK  148  A    between atoms: _373  and  _374
REMARK  149  A    between atoms: _377  and  _379
REMARK  150  A    between atoms: _379  and  _380
REMARK  151  A    between atoms: _379  and  _382
REMARK  152  A    between atoms: _382  and  _383
REMARK  153  A    between atoms: _383  and  _384
REMARK  154  A    between atoms: _384  and  _385
REMARK  155  A    between atoms: _394  and  _396
REMARK  156  A    between atoms: _396  and  _397
REMARK  157  A    between atoms: _396  and  _399
REMARK  158  A    between atoms: _399  and  _400
REMARK  159  A    between atoms: _410  and  _412
REMARK  160  A    between atoms: _412  and  _413
REMARK  161  A    between atoms: _412  and  _415
REMARK  162  A    between atoms: _415  and  _416
REMARK  163  A    between atoms: _421  and  _423
REMARK  164  A    between atoms: _423  and  _424
REMARK  165  A    between atoms: _426  and  _428
REMARK  166  A    between atoms: _428  and  _429
REMARK  167  A    between atoms: _428  and  _431
REMARK  168  A    between atoms: _434  and  _436
REMARK  169  A    between atoms: _436  and  _437
REMARK  170  A    between atoms: _440  and  _442
REMARK  171  A    between atoms: _442  and  _443
REMARK  172  A    between atoms: _442  and  _445
REMARK  173  A    between atoms: _445  and  _446
REMARK  174  A    between atoms: _451  and  _453
REMARK  175  A    between atoms: _453  and  _454
REMARK  176  A    between atoms: _453  and  _456
REMARK  177  A    between atoms: _456  and  _457
REMARK  178  A    between atoms: _457  and  _458
REMARK  179  A    between atoms: _458  and  _459
REMARK  180  A    between atoms: _459  and  _460
REMARK  181  A    between atoms: _464  and  _466
REMARK  182  A    between atoms: _466  and  _467
REMARK  183  A    between atoms: _466  and  _469
REMARK  184  A    between atoms: _469  and  _470
REMARK  185  A    between atoms: _475  and  _477
REMARK  186  A    between atoms: _477  and  _478
REMARK  187  A    between atoms: _480  and  _482
REMARK  188  A    between atoms: _482  and  _483
REMARK  189  A    between atoms: _482  and  _485
REMARK  190  A    between atoms: _485  and  _486
REMARK  191  A    between atoms: _486  and  _487
REMARK  192  A    between atoms: _487  and  _488
REMARK  193  A    between atoms: _488  and  _489
REMARK  194  A    between atoms: _493  and  _495
REMARK  195  A    between atoms: _495  and  _496
REMARK  196  A    between atoms: _495  and  _498
REMARK  197  A    between atoms: _498  and  _499
REMARK  198  A    between atoms: _499  and  _500
REMARK  199  A    between atoms: _500  and  _501
REMARK  200  A    between atoms: _510  and  _512
REMARK  201  A    between atoms: _512  and  _513
REMARK  202  A    between atoms: _512  and  _515
REMARK  203  A    between atoms: _515  and  _516
REMARK  204  A    between atoms: _521  and  _522
REMARK  205  A    between atoms: _524  and  _526
REMARK  206  A    between atoms: _526  and  _527
REMARK  207  A    between atoms: _526  and  _529
REMARK  208  A    between atoms: _529  and  _530
REMARK  209  A    between atoms: _530  and  _531
REMARK  210  A    between atoms: _531  and  _532
REMARK  211  A    between atoms: _532  and  _533
REMARK  212  A    between atoms: _537  and  _539
REMARK  213  A    between atoms: _539  and  _540
REMARK  214  A    between atoms: _539  and  _542
REMARK  215  A    between atoms: _542  and  _543
REMARK  216  A    between atoms: _545  and  _547
REMARK  217  A    between atoms: _547  and  _548
REMARK  218  A    between atoms: _547  and  _550
REMARK  219  A    between atoms: _550  and  _551
REMARK  220  A    between atoms: _554  and  _556
REMARK  221  A    between atoms: _556  and  _557
REMARK  222  A    between atoms: _556  and  _559
REMARK  223  A    between atoms: _559  and  _560
REMARK  224  A    between atoms: _560  and  _561
REMARK  225  A    between atoms: _564  and  _566
REMARK  226  A    between atoms: _566  and  _567
REMARK  227  A    between atoms: _570  and  _572
REMARK  228  A    between atoms: _572  and  _573
REMARK  229  A    between atoms: _572  and  _575
REMARK  230  A    between atoms: _575  and  _576
REMARK  231  A    between atoms: _578  and  _580
REMARK  232  A    between atoms: _580  and  _581
REMARK  233  A    between atoms: _583  and  _585
REMARK  234  A    between atoms: _585  and  _586
REMARK  235  A    between atoms: _585  and  _588
REMARK  236  A    between atoms: _588  and  _589
REMARK  237  A    between atoms: _592  and  _594
REMARK  238  A    between atoms: _594  and  _595
REMARK  239  A    between atoms: _597  and  _599
REMARK  240  A    between atoms: _599  and  _600
REMARK  241  A    between atoms: _599  and  _602
REMARK  242  A    between atoms: _602  and  _603
REMARK  243  A    between atoms: _608  and  _610
REMARK  244  A    between atoms: _610  and  _611
REMARK  245  A    between atoms: _610  and  _613
REMARK  246  A    between atoms: _613  and  _614
REMARK  247  A    between atoms: _614  and  _615
REMARK  248  A    between atoms: _622  and  _623
REMARK  249  A    between atoms: _623  and  _639
REMARK  250  A    between atoms: _624  and  _626
REMARK  251  A    between atoms: _626  and  _627
REMARK  252  A    between atoms: _627  and  _628
REMARK  253  A    between atoms: _632  and  _634
REMARK  254  A    between atoms: _634  and  _635
REMARK  255  A    between atoms: _634  and  _642
REMARK  256  A    between atoms: _635  and  _636
REMARK  257  A    between atoms: _636  and  _637
REMARK  258  A    between atoms: _637  and  _638
REMARK  259  A    between atoms: _638  and  _639
REMARK  260  A    between atoms: _644  and  _646
REMARK  261  A    between atoms: _646  and  _647
REMARK  262  A    between atoms: _646  and  _649
REMARK  263  A    between atoms: _649  and  _650
REMARK  264  A    between atoms: _653  and  _655
REMARK  265  A    between atoms: _655  and  _656
REMARK  266  A    between atoms: _658  and  _660
REMARK  267  A    between atoms: _660  and  _661
REMARK  268  A    between atoms: _664  and  _666
REMARK  269  A    between atoms: _666  and  _667
REMARK  270  A    between atoms: _666  and  _669
REMARK  271  A    between atoms: _669  and  _670
REMARK  272  A    between atoms: _675  and  _676
REMARK                            x       y       z     vdW  Elec       q    Type
REMARK                         _______ _______ _______ _____ _____    ______ ____
ROOT
ATOM      1  O   HOH     1      35.489  26.292  42.473  0.00  0.00    +0.000 OA
ENDROOT
TORSDOF 0
REMARK  Name = ../refined-set-2016/3l7a/3l7a_pocket.pdb
REMARK  272 active torsions:
REMARK  status: ('A' for Active; 'I' for Inactive)
REMARK    1  A    between atoms: _1  and  _3
REMARK    2  A    between atoms: _3  and  _4
REMARK    3  A    between atoms: _3  and  _6
REMARK    4  A    between atoms: _6  and  _7
REMARK    5  A    between atoms: _12  and  _13
REMARK    6  A    between atoms: _15  and  _17
REMARK    7  A    between atoms: _17  and  _18
REMARK    8  A    between atoms: _17  and  _20
REMARK    9  A    between atoms: _20  and  _21
REMARK   10  A    between atoms: _24  and  _26
REMARK   11  A    between atoms: _26  and  _27
REMARK   12  A    between atoms: _26  and  _29
REMARK   13  A    between atoms: _29  and  _30
REMARK   14  A    between atoms: _30  and  _31
REMARK   15  A    between atoms: _34  and  _36
REMARK   16  A    between atoms: _36  and  _37
REMARK   17  A    between atoms: _36  and  _39
REMARK   18  A    between atoms: _39  and  _40
REMARK   19  A    between atoms: _45  and  _46
REMARK   20  A    between atoms: _48  and  _50
REMARK   21  A    between atoms: _50  and  _51
REMARK   22  A    between atoms: _50  and  _53
REMARK   23  A    between atoms: _53  and  _54
REMARK   24  A    between atoms: _59  and  _61
REMARK   25  A    between atoms: _61  and  _62
REMARK   26  A    between atoms: _64  and  _66
REMARK   27  A    between atoms: _66  and  _67
REMARK   28  A    between atoms: _69  and  _71
REMARK   29  A    between atoms: _71  and  _72
REMARK   30  A    between atoms: _71  and  _74
REMARK   31  A    between atoms: _74  and  _75
REMARK   32  A    between atoms: _78  and  _80
REMARK   33  A    between atoms: _80  and  _81
REMARK   34  A    between atoms: _83  and  _85
REMARK   35  A    between atoms: _85  and  _86
REMARK   36  A    between atoms: _85  and  _88
REMARK   37  A    between atoms: _88  and  _89
REMARK   38  A    between atoms: _89  and  _90
REMARK   39  A    between atoms: _90  and  _91
REMARK   40  A    between atoms: _100  and  _102
REMARK   41  A    between atoms: _102  and  _103
REMARK   42  A    between atoms: _102  and  _105
REMARK   43  A    between atoms: _105  and  _106
REMARK   44  A    between atoms: _109  and  _111
REMARK   45  A    between atoms: _111  and  _112
REMARK   46  A    between atoms: _115  and  _117
REMARK   47  A    between atoms: _117  and  _118
REMARK   48  A    between atoms: _117  and  _120
REMARK   49  A    between atoms: _120  and  _121
REMARK   50  A    between atoms: _127  and  _129
REMARK   51  A    between atoms: _129  and  _130
REMARK   52  A    between atoms: _129  and  _132
REMARK   53  A    between atoms: _132  and  _133
REMARK   54  A    between atoms: _138  and  _139
REMARK   55  A    between atoms: _142  and  _143
REMARK   56  A    between atoms: _148  and  _150
REMARK   57  A    between atoms: _150  and  _151
REMARK   58  A    between atoms: _150  and  _153
REMARK   59  A    between atoms: _153  and  _154
REMARK   60  A    between atoms: _159  and  _161
REMARK   61  A    between atoms: _161  and  _162
REMARK   62  A    between atoms: _161  and  _164
REMARK   63  A    between atoms: _164  and  _165
REMARK   64  A    between atoms: _168  and  _170
REMARK   65  A    between atoms: _170  and  _171
REMARK   66  A    between atoms: _170  and  _173
REMARK   67  A    between atoms: _173  and  _174
REMARK   68  A    between atoms: _179  and  _181
REMARK   69  A    between atoms: _181  and  _182
REMARK   70  A    between atoms: _181  and  _184
REMARK   71  A    between atoms: _184  and  _185
REMARK   72  A    between atoms: _191  and  _193
REMARK   73  A    between atoms: _193  and  _194
REMARK   74  A    between atoms: _193  and  _196
REMARK   75  A    between atoms: _196  and  _197
REMARK   76  A    between atoms: _203  and  _205
REMARK   77  A    between atoms: _205  and  _206
REMARK   78  A    between atoms: _205  and  _208
REMARK   79  A    between atoms: _208  and  _209
REMARK   80  A    between atoms: _209  and  _210
REMARK   81  A    between atoms: _213  and  _215
REMARK   82  A    between atoms: _215  and  _216
REMARK   83  A    between atoms: _218  and  _220
REMARK   84  A    between atoms: _220  and  _221
REMARK   85  A    between atoms: _220  and  _223
REMARK   86  A    between atoms: _223  and  _224
REMARK   87  A    between atoms: _224  and  _225
REMARK   88  A    between atoms: _225  and  _226
REMARK   89  A    between atoms: _235  and  _237
REMARK   90  A    between atoms: _237  and  _238
REMARK   91  A    between atoms: _237  and  _240
REMARK   92  A    between atoms: _240  and  _241
REMARK   93  A    between atoms: _241  and  _242
REMARK   94  A    between atoms: _245  and  _247
REMARK   95  A    between atoms: _247  and  _248
REMARK   96  A    between atoms: _247  and  _250
REMARK   97  A    between atoms: _250  and  _251
REMARK   98  A    between atoms: _256  and  _258
REMARK   99  A    between atoms: _258  and  _259
REMARK  100  A    between atoms: _258  and  _261
REMARK  101  A    between atoms: _261  and  _262
REMARK  102  A    between atoms: _265  and  _267
REMARK  103  A    between atoms: _267  and  _268
REMARK  104  A    between atoms: _267  and  _270
REMARK  105  A    between atoms: _270  and  _271
REMARK  106  A    between atoms: _274  and  _276
REMARK  107  A    between atoms: _276  and  _277
REMARK  108  A    between atoms: _276  and  _279
REMARK  109  A    between atoms: _279  and  _280
REMARK  110  A    between atoms: _285  and  _287
REMARK  111  A    between atoms: _287  and  _288
REMARK  112  A    between atoms: _287  and  _290
REMARK  113  A    between atoms: _290  and  _291
REMARK  114  A    between atoms: _294  and  _296
REMARK  115  A    between atoms: _296  and  _297
REMARK  116  A    between atoms: _296  and  _299
REMARK  117  A    between atoms: _299  and  _300
REMARK  118  A    between atoms: _305  and  _307
REMARK  119  A    between atoms: _307  and  _308
REMARK  120  A    between atoms: _307  and  _310
REMARK  121  A    between atoms: _310  and  _311
REMARK  122  A    between atoms: _316  and  _318
REMARK  123  A    between atoms: _318  and  _319
REMARK  124  A    between atoms: _318  and  _321
REMARK  125  A    between atoms: _321  and  _322
REMARK  126  A    between atoms: _325  and  _327
REMARK  127  A    between atoms: _327  and  _328
REMARK  128  A    between atoms: _327  and  _330
REMARK  129  A    between atoms: _333  and  _335
REMARK  130  A    between atoms: _335  and  _336
REMARK  131  A    between atoms: _335  and  _338
REMARK  132  A    between atoms: _338  and  _339
REMARK  133  A    between atoms: _342  and  _344
REMARK  134  A    between atoms: _344  and  _345
REMARK  135  A    between atoms: _344  and  _347
REMARK  136  A    between atoms: _347  and  _348
REMARK  137  A    between atoms: _348  and  _349
REMARK  138  A    between atoms: _352  and  _354
REMARK  139  A    between atoms: _354  and  _355
REMARK  140  A    between atoms: _358  and  _360
REMARK  141  A    between atoms: _360  and  _361
REMARK  142  A    between atoms: _360  and  _363
REMARK  143  A    between atoms: _363  and  _364
REMARK  144  A    between atoms: _367  and  _369
REMARK  145  A    between atoms: _369  and  _370
REMARK  146  A    between atoms: _369  and  _372
REMARK  147  A    between atoms: _372  and  _373
REMARK  148  A    between atoms: _373  and  _374
REMARK  149  A    between atoms: _377  and  _379
REMARK  150  A    between atoms: _379  and  _380
REMARK  151  A    between atoms: _379  and  _382
REMARK  152  A    between atoms: _382  and  _383
REMARK  153  A    between atoms: _383  and  _384
REMARK  154  A    between atoms: _384  and  _385
REMARK  155  A    between atoms: _394  and  _396
REMARK  156  A    between atoms: _396  and  _397
REMARK  157  A    between atoms: _396  and  _399
REMARK  158  A    between atoms: _399  and  _400
REMARK  159  A    between atoms: _410  and  _412
REMARK  160  A    between atoms: _412  and  _413
REMARK  161  A    between atoms: _412  and  _415
REMARK  162  A    between atoms: _415  and  _416
REMARK  163  A    between atoms: _421  and  _423
REMARK  164  A    between atoms: _423  and  _424
REMARK  165  A    between atoms: _426  and  _428
REMARK  166  A    between atoms: _428  and  _429
REMARK  167  A    between atoms: _428  and  _431
REMARK  168  A    between atoms: _434  and  _436
REMARK  169  A    between atoms: _436  and  _437
REMARK  170  A    between atoms: _440  and  _442
REMARK  171  A    between atoms: _442  and  _443
REMARK  172  A    between atoms: _442  and  _445
REMARK  173  A    between atoms: _445  and  _446
REMARK  174  A    between atoms: _451  and  _453
REMARK  175  A    between atoms: _453  and  _454
REMARK  176  A    between atoms: _453  and  _456
REMARK  177  A    between atoms: _456  and  _457
REMARK  178  A    between atoms: _457  and  _458
REMARK  179  A    between atoms: _458  and  _459
REMARK  180  A    between atoms: _459  and  _460
REMARK  181  A    between atoms: _464  and  _466
REMARK  182  A    between atoms: _466  and  _467
REMARK  183  A    between atoms: _466  and  _469
REMARK  184  A    between atoms: _469  and  _470
REMARK  185  A    between atoms: _475  and  _477
REMARK  186  A    between atoms: _477  and  _478
REMARK  187  A    between atoms: _480  and  _482
REMARK  188  A    between atoms: _482  and  _483
REMARK  189  A    between atoms: _482  and  _485
REMARK  190  A    between atoms: _485  and  _486
REMARK  191  A    between atoms: _486  and  _487
REMARK  192  A    between atoms: _487  and  _488
REMARK  193  A    between atoms: _488  and  _489
REMARK  194  A    between atoms: _493  and  _495
REMARK  195  A    between atoms: _495  and  _496
REMARK  196  A    between atoms: _495  and  _498
REMARK  197  A    between atoms: _498  and  _499
REMARK  198  A    between atoms: _499  and  _500
REMARK  199  A    between atoms: _500  and  _501
REMARK  200  A    between atoms: _510  and  _512
REMARK  201  A    between atoms: _512  and  _513
REMARK  202  A    between atoms: _512  and  _515
REMARK  203  A    between atoms: _515  and  _516
REMARK  204  A    between atoms: _521  and  _522
REMARK  205  A    between atoms: _524  and  _526
REMARK  206  A    between atoms: _526  and  _527
REMARK  207  A    between atoms: _526  and  _529
REMARK  208  A    between atoms: _529  and  _530
REMARK  209  A    between atoms: _530  and  _531
REMARK  210  A    between atoms: _531  and  _532
REMARK  211  A    between atoms: _532  and  _533
REMARK  212  A    between atoms: _537  and  _539
REMARK  213  A    between atoms: _539  and  _540
REMARK  214  A    between atoms: _539  and  _542
REMARK  215  A    between atoms: _542  and  _543
REMARK  216  A    between atoms: _545  and  _547
REMARK  217  A    between atoms: _547  and  _548
REMARK  218  A    between atoms: _547  and  _550
REMARK  219  A    between atoms: _550  and  _551
REMARK  220  A    between atoms: _554  and  _556
REMARK  221  A    between atoms: _556  and  _557
REMARK  222  A    between atoms: _556  and  _559
REMARK  223  A    between atoms: _559  and  _560
REMARK  224  A    between atoms: _560  and  _561
REMARK  225  A    between atoms: _564  and  _566
REMARK  226  A    between atoms: _566  and  _567
REMARK  227  A    between atoms: _570  and  _572
REMARK  228  A    between atoms: _572  and  _573
REMARK  229  A    between atoms: _572  and  _575
REMARK  230  A    between atoms: _575  and  _576
REMARK  231  A    between atoms: _578  and  _580
REMARK  232  A    between atoms: _580  and  _581
REMARK  233  A    between atoms: _583  and  _585
REMARK  234  A    between atoms: _585  and  _586
REMARK  235  A    between atoms: _585  and  _588
REMARK  236  A    between atoms: _588  and  _589
REMARK  237  A    between atoms: _592  and  _594
REMARK  238  A    between atoms: _594  and  _595
REMARK  239  A    between atoms: _597  and  _599
REMARK  240  A    between atoms: _599  and  _600
REMARK  241  A    between atoms: _599  and  _602
REMARK  242  A    between atoms: _602  and  _603
REMARK  243  A    between atoms: _608  and  _610
REMARK  244  A    between atoms: _610  and  _611
REMARK  245  A    between atoms: _610  and  _613
REMARK  246  A    between atoms: _613  and  _614
REMARK  247  A    between atoms: _614  and  _615
REMARK  248  A    between atoms: _622  and  _623
REMARK  249  A    between atoms: _623  and  _639
REMARK  250  A    between atoms: _624  and  _626
REMARK  251  A    between atoms: _626  and  _627
REMARK  252  A    between atoms: _627  and  _628
REMARK  253  A    between atoms: _632  and  _634
REMARK  254  A    between atoms: _634  and  _635
REMARK  255  A    between atoms: _634  and  _642
REMARK  256  A    between atoms: _635  and  _636
REMARK  257  A    between atoms: _636  and  _637
REMARK  258  A    between atoms: _637  and  _638
REMARK  259  A    between atoms: _638  and  _639
REMARK  260  A    between atoms: _644  and  _646
REMARK  261  A    between atoms: _646  and  _647
REMARK  262  A    between atoms: _646  and  _649
REMARK  263  A    between atoms: _649  and  _650
REMARK  264  A    between atoms: _653  and  _655
REMARK  265  A    between atoms: _655  and  _656
REMARK  266  A    between atoms: _658  and  _660
REMARK  267  A    between atoms: _660  and  _661
REMARK  268  A    between atoms: _664  and  _666
REMARK  269  A    between atoms: _666  and  _667
REMARK  270  A    between atoms: _666  and  _669
REMARK  271  A    between atoms: _669  and  _670
REMARK  272  A    between atoms: _675  and  _676
REMARK                            x       y       z     vdW  Elec       q    Type
REMARK                         _______ _______ _______ _____ _____    ______ ____
ROOT
ATOM      1  O   HOH     1      33.739  12.730  26.434  0.00  0.00    +0.000 OA
ENDROOT
TORSDOF 0
REMARK  Name = ../refined-set-2016/3l7a/3l7a_pocket.pdb
REMARK  272 active torsions:
REMARK  status: ('A' for Active; 'I' for Inactive)
REMARK    1  A    between atoms: _1  and  _3
REMARK    2  A    between atoms: _3  and  _4
REMARK    3  A    between atoms: _3  and  _6
REMARK    4  A    between atoms: _6  and  _7
REMARK    5  A    between atoms: _12  and  _13
REMARK    6  A    between atoms: _15  and  _17
REMARK    7  A    between atoms: _17  and  _18
REMARK    8  A    between atoms: _17  and  _20
REMARK    9  A    between atoms: _20  and  _21
REMARK   10  A    between atoms: _24  and  _26
REMARK   11  A    between atoms: _26  and  _27
REMARK   12  A    between atoms: _26  and  _29
REMARK   13  A    between atoms: _29  and  _30
REMARK   14  A    between atoms: _30  and  _31
REMARK   15  A    between atoms: _34  and  _36
REMARK   16  A    between atoms: _36  and  _37
REMARK   17  A    between atoms: _36  and  _39
REMARK   18  A    between atoms: _39  and  _40
REMARK   19  A    between atoms: _45  and  _46
REMARK   20  A    between atoms: _48  and  _50
REMARK   21  A    between atoms: _50  and  _51
REMARK   22  A    between atoms: _50  and  _53
REMARK   23  A    between atoms: _53  and  _54
REMARK   24  A    between atoms: _59  and  _61
REMARK   25  A    between atoms: _61  and  _62
REMARK   26  A    between atoms: _64  and  _66
REMARK   27  A    between atoms: _66  and  _67
REMARK   28  A    between atoms: _69  and  _71
REMARK   29  A    between atoms: _71  and  _72
REMARK   30  A    between atoms: _71  and  _74
REMARK   31  A    between atoms: _74  and  _75
REMARK   32  A    between atoms: _78  and  _80
REMARK   33  A    between atoms: _80  and  _81
REMARK   34  A    between atoms: _83  and  _85
REMARK   35  A    between atoms: _85  and  _86
REMARK   36  A    between atoms: _85  and  _88
REMARK   37  A    between atoms: _88  and  _89
REMARK   38  A    between atoms: _89  and  _90
REMARK   39  A    between atoms: _90  and  _91
REMARK   40  A    between atoms: _100  and  _102
REMARK   41  A    between atoms: _102  and  _103
REMARK   42  A    between atoms: _102  and  _105
REMARK   43  A    between atoms: _105  and  _106
REMARK   44  A    between atoms: _109  and  _111
REMARK   45  A    between atoms: _111  and  _112
REMARK   46  A    between atoms: _115  and  _117
REMARK   47  A    between atoms: _117  and  _118
REMARK   48  A    between atoms: _117  and  _120
REMARK   49  A    between atoms: _120  and  _121
REMARK   50  A    between atoms: _127  and  _129
REMARK   51  A    between atoms: _129  and  _130
REMARK   52  A    between atoms: _129  and  _132
REMARK   53  A    between atoms: _132  and  _133
REMARK   54  A    between atoms: _138  and  _139
REMARK   55  A    between atoms: _142  and  _143
REMARK   56  A    between atoms: _148  and  _150
REMARK   57  A    between atoms: _150  and  _151
REMARK   58  A    between atoms: _150  and  _153
REMARK   59  A    between atoms: _153  and  _154
REMARK   60  A    between atoms: _159  and  _161
REMARK   61  A    between atoms: _161  and  _162
REMARK   62  A    between atoms: _161  and  _164
REMARK   63  A    between atoms: _164  and  _165
REMARK   64  A    between atoms: _168  and  _170
REMARK   65  A    between atoms: _170  and  _171
REMARK   66  A    between atoms: _170  and  _173
REMARK   67  A    between atoms: _173  and  _174
REMARK   68  A    between atoms: _179  and  _181
REMARK   69  A    between atoms: _181  and  _182
REMARK   70  A    between atoms: _181  and  _184
REMARK   71  A    between atoms: _184  and  _185
REMARK   72  A    between atoms: _191  and  _193
REMARK   73  A    between atoms: _193  and  _194
REMARK   74  A    between atoms: _193  and  _196
REMARK   75  A    between atoms: _196  and  _197
REMARK   76  A    between atoms: _203  and  _205
REMARK   77  A    between atoms: _205  and  _206
REMARK   78  A    between atoms: _205  and  _208
REMARK   79  A    between atoms: _208  and  _209
REMARK   80  A    between atoms: _209  and  _210
REMARK   81  A    between atoms: _213  and  _215
REMARK   82  A    between atoms: _215  and  _216
REMARK   83  A    between atoms: _218  and  _220
REMARK   84  A    between atoms: _220  and  _221
REMARK   85  A    between atoms: _220  and  _223
REMARK   86  A    between atoms: _223  and  _224
REMARK   87  A    between atoms: _224  and  _225
REMARK   88  A    between atoms: _225  and  _226
REMARK   89  A    between atoms: _235  and  _237
REMARK   90  A    between atoms: _237  and  _238
REMARK   91  A    between atoms: _237  and  _240
REMARK   92  A    between atoms: _240  and  _241
REMARK   93  A    between atoms: _241  and  _242
REMARK   94  A    between atoms: _245  and  _247
REMARK   95  A    between atoms: _247  and  _248
REMARK   96  A    between atoms: _247  and  _250
REMARK   97  A    between atoms: _250  and  _251
REMARK   98  A    between atoms: _256  and  _258
REMARK   99  A    between atoms: _258  and  _259
REMARK  100  A    between atoms: _258  and  _261
REMARK  101  A    between atoms: _261  and  _262
REMARK  102  A    between atoms: _265  and  _267
REMARK  103  A    between atoms: _267  and  _268
REMARK  104  A    between atoms: _267  and  _270
REMARK  105  A    between atoms: _270  and  _271
REMARK  106  A    between atoms: _274  and  _276
REMARK  107  A    between atoms: _276  and  _277
REMARK  108  A    between atoms: _276  and  _279
REMARK  109  A    between atoms: _279  and  _280
REMARK  110  A    between atoms: _285  and  _287
REMARK  111  A    between atoms: _287  and  _288
REMARK  112  A    between atoms: _287  and  _290
REMARK  113  A    between atoms: _290  and  _291
REMARK  114  A    between atoms: _294  and  _296
REMARK  115  A    between atoms: _296  and  _297
REMARK  116  A    between atoms: _296  and  _299
REMARK  117  A    between atoms: _299  and  _300
REMARK  118  A    between atoms: _305  and  _307
REMARK  119  A    between atoms: _307  and  _308
REMARK  120  A    between atoms: _307  and  _310
REMARK  121  A    between atoms: _310  and  _311
REMARK  122  A    between atoms: _316  and  _318
REMARK  123  A    between atoms: _318  and  _319
REMARK  124  A    between atoms: _318  and  _321
REMARK  125  A    between atoms: _321  and  _322
REMARK  126  A    between atoms: _325  and  _327
REMARK  127  A    between atoms: _327  and  _328
REMARK  128  A    between atoms: _327  and  _330
REMARK  129  A    between atoms: _333  and  _335
REMARK  130  A    between atoms: _335  and  _336
REMARK  131  A    between atoms: _335  and  _338
REMARK  132  A    between atoms: _338  and  _339
REMARK  133  A    between atoms: _342  and  _344
REMARK  134  A    between atoms: _344  and  _345
REMARK  135  A    between atoms: _344  and  _347
REMARK  136  A    between atoms: _347  and  _348
REMARK  137  A    between atoms: _348  and  _349
REMARK  138  A    between atoms: _352  and  _354
REMARK  139  A    between atoms: _354  and  _355
REMARK  140  A    between atoms: _358  and  _360
REMARK  141  A    between atoms: _360  and  _361
REMARK  142  A    between atoms: _360  and  _363
REMARK  143  A    between atoms: _363  and  _364
REMARK  144  A    between atoms: _367  and  _369
REMARK  145  A    between atoms: _369  and  _370
REMARK  146  A    between atoms: _369  and  _372
REMARK  147  A    between atoms: _372  and  _373
REMARK  148  A    between atoms: _373  and  _374
REMARK  149  A    between atoms: _377  and  _379
REMARK  150  A    between atoms: _379  and  _380
REMARK  151  A    between atoms: _379  and  _382
REMARK  152  A    between atoms: _382  and  _383
REMARK  153  A    between atoms: _383  and  _384
REMARK  154  A    between atoms: _384  and  _385
REMARK  155  A    between atoms: _394  and  _396
REMARK  156  A    between atoms: _396  and  _397
REMARK  157  A    between atoms: _396  and  _399
REMARK  158  A    between atoms: _399  and  _400
REMARK  159  A    between atoms: _410  and  _412
REMARK  160  A    between atoms: _412  and  _413
REMARK  161  A    between atoms: _412  and  _415
REMARK  162  A    between atoms: _415  and  _416
REMARK  163  A    between atoms: _421  and  _423
REMARK  164  A    between atoms: _423  and  _424
REMARK  165  A    between atoms: _426  and  _428
REMARK  166  A    between atoms: _428  and  _429
REMARK  167  A    between atoms: _428  and  _431
REMARK  168  A    between atoms: _434  and  _436
REMARK  169  A    between atoms: _436  and  _437
REMARK  170  A    between atoms: _440  and  _442
REMARK  171  A    between atoms: _442  and  _443
REMARK  172  A    between atoms: _442  and  _445
REMARK  173  A    between atoms: _445  and  _446
REMARK  174  A    between atoms: _451  and  _453
REMARK  175  A    between atoms: _453  and  _454
REMARK  176  A    between atoms: _453  and  _456
REMARK  177  A    between atoms: _456  and  _457
REMARK  178  A    between atoms: _457  and  _458
REMARK  179  A    between atoms: _458  and  _459
REMARK  180  A    between atoms: _459  and  _460
REMARK  181  A    between atoms: _464  and  _466
REMARK  182  A    between atoms: _466  and  _467
REMARK  183  A    between atoms: _466  and  _469
REMARK  184  A    between atoms: _469  and  _470
REMARK  185  A    between atoms: _475  and  _477
REMARK  186  A    between atoms: _477  and  _478
REMARK  187  A    between atoms: _480  and  _482
REMARK  188  A    between atoms: _482  and  _483
REMARK  189  A    between atoms: _482  and  _485
REMARK  190  A    between atoms: _485  and  _486
REMARK  191  A    between atoms: _486  and  _487
REMARK  192  A    between atoms: _487  and  _488
REMARK  193  A    between atoms: _488  and  _489
REMARK  194  A    between atoms: _493  and  _495
REMARK  195  A    between atoms: _495  and  _496
REMARK  196  A    between atoms: _495  and  _498
REMARK  197  A    between atoms: _498  and  _499
REMARK  198  A    between atoms: _499  and  _500
REMARK  199  A    between atoms: _500  and  _501
REMARK  200  A    between atoms: _510  and  _512
REMARK  201  A    between atoms: _512  and  _513
REMARK  202  A    between atoms: _512  and  _515
REMARK  203  A    between atoms: _515  and  _516
REMARK  204  A    between atoms: _521  and  _522
REMARK  205  A    between atoms: _524  and  _526
REMARK  206  A    between atoms: _526  and  _527
REMARK  207  A    between atoms: _526  and  _529
REMARK  208  A    between atoms: _529  and  _530
REMARK  209  A    between atoms: _530  and  _531
REMARK  210  A    between atoms: _531  and  _532
REMARK  211  A    between atoms: _532  and  _533
REMARK  212  A    between atoms: _537  and  _539
REMARK  213  A    between atoms: _539  and  _540
REMARK  214  A    between atoms: _539  and  _542
REMARK  215  A    between atoms: _542  and  _543
REMARK  216  A    between atoms: _545  and  _547
REMARK  217  A    between atoms: _547  and  _548
REMARK  218  A    between atoms: _547  and  _550
REMARK  219  A    between atoms: _550  and  _551
REMARK  220  A    between atoms: _554  and  _556
REMARK  221  A    between atoms: _556  and  _557
REMARK  222  A    between atoms: _556  and  _559
REMARK  223  A    between atoms: _559  and  _560
REMARK  224  A    between atoms: _560  and  _561
REMARK  225  A    between atoms: _564  and  _566
REMARK  226  A    between atoms: _566  and  _567
REMARK  227  A    between atoms: _570  and  _572
REMARK  228  A    between atoms: _572  and  _573
REMARK  229  A    between atoms: _572  and  _575
REMARK  230  A    between atoms: _575  and  _576
REMARK  231  A    between atoms: _578  and  _580
REMARK  232  A    between atoms: _580  and  _581
REMARK  233  A    between atoms: _583  and  _585
REMARK  234  A    between atoms: _585  and  _586
REMARK  235  A    between atoms: _585  and  _588
REMARK  236  A    between atoms: _588  and  _589
REMARK  237  A    between atoms: _592  and  _594
REMARK  238  A    between atoms: _594  and  _595
REMARK  239  A    between atoms: _597  and  _599
REMARK  240  A    between atoms: _599  and  _600
REMARK  241  A    between atoms: _599  and  _602
REMARK  242  A    between atoms: _602  and  _603
REMARK  243  A    between atoms: _608  and  _610
REMARK  244  A    between atoms: _610  and  _611
REMARK  245  A    between atoms: _610  and  _613
REMARK  246  A    between atoms: _613  and  _614
REMARK  247  A    between atoms: _614  and  _615
REMARK  248  A    between atoms: _622  and  _623
REMARK  249  A    between atoms: _623  and  _639
REMARK  250  A    between atoms: _624  and  _626
REMARK  251  A    between atoms: _626  and  _627
REMARK  252  A    between atoms: _627  and  _628
REMARK  253  A    between atoms: _632  and  _634
REMARK  254  A    between atoms: _634  and  _635
REMARK  255  A    between atoms: _634  and  _642
REMARK  256  A    between atoms: _635  and  _636
REMARK  257  A    between atoms: _636  and  _637
REMARK  258  A    between atoms: _637  and  _638
REMARK  259  A    between atoms: _638  and  _639
REMARK  260  A    between atoms: _644  and  _646
REMARK  261  A    between atoms: _646  and  _647
REMARK  262  A    between atoms: _646  and  _649
REMARK  263  A    between atoms: _649  and  _650
REMARK  264  A    between atoms: _653  and  _655
REMARK  265  A    between atoms: _655  and  _656
REMARK  266  A    between atoms: _658  and  _660
REMARK  267  A    between atoms: _660  and  _661
REMARK  268  A    between atoms: _664  and  _666
REMARK  269  A    between atoms: _666  and  _667
REMARK  270  A    between atoms: _666  and  _669
REMARK  271  A    between atoms: _669  and  _670
REMARK  272  A    between atoms: _675  and  _676
REMARK                            x       y       z     vdW  Elec       q    Type
REMARK                         _______ _______ _______ _____ _____    ______ ____
ROOT
ATOM      1  O   HOH     1      29.307  27.436  20.739  0.00  0.00    +0.000 OA
ENDROOT
TORSDOF 0
REMARK  Name = ../refined-set-2016/3l7a/3l7a_pocket.pdb
REMARK  272 active torsions:
REMARK  status: ('A' for Active; 'I' for Inactive)
REMARK    1  A    between atoms: _1  and  _3
REMARK    2  A    between atoms: _3  and  _4
REMARK    3  A    between atoms: _3  and  _6
REMARK    4  A    between atoms: _6  and  _7
REMARK    5  A    between atoms: _12  and  _13
REMARK    6  A    between atoms: _15  and  _17
REMARK    7  A    between atoms: _17  and  _18
REMARK    8  A    between atoms: _17  and  _20
REMARK    9  A    between atoms: _20  and  _21
REMARK   10  A    between atoms: _24  and  _26
REMARK   11  A    between atoms: _26  and  _27
REMARK   12  A    between atoms: _26  and  _29
REMARK   13  A    between atoms: _29  and  _30
REMARK   14  A    between atoms: _30  and  _31
REMARK   15  A    between atoms: _34  and  _36
REMARK   16  A    between atoms: _36  and  _37
REMARK   17  A    between atoms: _36  and  _39
REMARK   18  A    between atoms: _39  and  _40
REMARK   19  A    between atoms: _45  and  _46
REMARK   20  A    between atoms: _48  and  _50
REMARK   21  A    between atoms: _50  and  _51
REMARK   22  A    between atoms: _50  and  _53
REMARK   23  A    between atoms: _53  and  _54
REMARK   24  A    between atoms: _59  and  _61
REMARK   25  A    between atoms: _61  and  _62
REMARK   26  A    between atoms: _64  and  _66
REMARK   27  A    between atoms: _66  and  _67
REMARK   28  A    between atoms: _69  and  _71
REMARK   29  A    between atoms: _71  and  _72
REMARK   30  A    between atoms: _71  and  _74
REMARK   31  A    between atoms: _74  and  _75
REMARK   32  A    between atoms: _78  and  _80
REMARK   33  A    between atoms: _80  and  _81
REMARK   34  A    between atoms: _83  and  _85
REMARK   35  A    between atoms: _85  and  _86
REMARK   36  A    between atoms: _85  and  _88
REMARK   37  A    between atoms: _88  and  _89
REMARK   38  A    between atoms: _89  and  _90
REMARK   39  A    between atoms: _90  and  _91
REMARK   40  A    between atoms: _100  and  _102
REMARK   41  A    between atoms: _102  and  _103
REMARK   42  A    between atoms: _102  and  _105
REMARK   43  A    between atoms: _105  and  _106
REMARK   44  A    between atoms: _109  and  _111
REMARK   45  A    between atoms: _111  and  _112
REMARK   46  A    between atoms: _115  and  _117
REMARK   47  A    between atoms: _117  and  _118
REMARK   48  A    between atoms: _117  and  _120
REMARK   49  A    between atoms: _120  and  _121
REMARK   50  A    between atoms: _127  and  _129
REMARK   51  A    between atoms: _129  and  _130
REMARK   52  A    between atoms: _129  and  _132
REMARK   53  A    between atoms: _132  and  _133
REMARK   54  A    between atoms: _138  and  _139
REMARK   55  A    between atoms: _142  and  _143
REMARK   56  A    between atoms: _148  and  _150
REMARK   57  A    between atoms: _150  and  _151
REMARK   58  A    between atoms: _150  and  _153
REMARK   59  A    between atoms: _153  and  _154
REMARK   60  A    between atoms: _159  and  _161
REMARK   61  A    between atoms: _161  and  _162
REMARK   62  A    between atoms: _161  and  _164
REMARK   63  A    between atoms: _164  and  _165
REMARK   64  A    between atoms: _168  and  _170
REMARK   65  A    between atoms: _170  and  _171
REMARK   66  A    between atoms: _170  and  _173
REMARK   67  A    between atoms: _173  and  _174
REMARK   68  A    between atoms: _179  and  _181
REMARK   69  A    between atoms: _181  and  _182
REMARK   70  A    between atoms: _181  and  _184
REMARK   71  A    between atoms: _184  and  _185
REMARK   72  A    between atoms: _191  and  _193
REMARK   73  A    between atoms: _193  and  _194
REMARK   74  A    between atoms: _193  and  _196
REMARK   75  A    between atoms: _196  and  _197
REMARK   76  A    between atoms: _203  and  _205
REMARK   77  A    between atoms: _205  and  _206
REMARK   78  A    between atoms: _205  and  _208
REMARK   79  A    between atoms: _208  and  _209
REMARK   80  A    between atoms: _209  and  _210
REMARK   81  A    between atoms: _213  and  _215
REMARK   82  A    between atoms: _215  and  _216
REMARK   83  A    between atoms: _218  and  _220
REMARK   84  A    between atoms: _220  and  _221
REMARK   85  A    between atoms: _220  and  _223
REMARK   86  A    between atoms: _223  and  _224
REMARK   87  A    between atoms: _224  and  _225
REMARK   88  A    between atoms: _225  and  _226
REMARK   89  A    between atoms: _235  and  _237
REMARK   90  A    between atoms: _237  and  _238
REMARK   91  A    between atoms: _237  and  _240
REMARK   92  A    between atoms: _240  and  _241
REMARK   93  A    between atoms: _241  and  _242
REMARK   94  A    between atoms: _245  and  _247
REMARK   95  A    between atoms: _247  and  _248
REMARK   96  A    between atoms: _247  and  _250
REMARK   97  A    between atoms: _250  and  _251
REMARK   98  A    between atoms: _256  and  _258
REMARK   99  A    between atoms: _258  and  _259
REMARK  100  A    between atoms: _258  and  _261
REMARK  101  A    between atoms: _261  and  _262
REMARK  102  A    between atoms: _265  and  _267
REMARK  103  A    between atoms: _267  and  _268
REMARK  104  A    between atoms: _267  and  _270
REMARK  105  A    between atoms: _270  and  _271
REMARK  106  A    between atoms: _274  and  _276
REMARK  107  A    between atoms: _276  and  _277
REMARK  108  A    between atoms: _276  and  _279
REMARK  109  A    between atoms: _279  and  _280
REMARK  110  A    between atoms: _285  and  _287
REMARK  111  A    between atoms: _287  and  _288
REMARK  112  A    between atoms: _287  and  _290
REMARK  113  A    between atoms: _290  and  _291
REMARK  114  A    between atoms: _294  and  _296
REMARK  115  A    between atoms: _296  and  _297
REMARK  116  A    between atoms: _296  and  _299
REMARK  117  A    between atoms: _299  and  _300
REMARK  118  A    between atoms: _305  and  _307
REMARK  119  A    between atoms: _307  and  _308
REMARK  120  A    between atoms: _307  and  _310
REMARK  121  A    between atoms: _310  and  _311
REMARK  122  A    between atoms: _316  and  _318
REMARK  123  A    between atoms: _318  and  _319
REMARK  124  A    between atoms: _318  and  _321
REMARK  125  A    between atoms: _321  and  _322
REMARK  126  A    between atoms: _325  and  _327
REMARK  127  A    between atoms: _327  and  _328
REMARK  128  A    between atoms: _327  and  _330
REMARK  129  A    between atoms: _333  and  _335
REMARK  130  A    between atoms: _335  and  _336
REMARK  131  A    between atoms: _335  and  _338
REMARK  132  A    between atoms: _338  and  _339
REMARK  133  A    between atoms: _342  and  _344
REMARK  134  A    between atoms: _344  and  _345
REMARK  135  A    between atoms: _344  and  _347
REMARK  136  A    between atoms: _347  and  _348
REMARK  137  A    between atoms: _348  and  _349
REMARK  138  A    between atoms: _352  and  _354
REMARK  139  A    between atoms: _354  and  _355
REMARK  140  A    between atoms: _358  and  _360
REMARK  141  A    between atoms: _360  and  _361
REMARK  142  A    between atoms: _360  and  _363
REMARK  143  A    between atoms: _363  and  _364
REMARK  144  A    between atoms: _367  and  _369
REMARK  145  A    between atoms: _369  and  _370
REMARK  146  A    between atoms: _369  and  _372
REMARK  147  A    between atoms: _372  and  _373
REMARK  148  A    between atoms: _373  and  _374
REMARK  149  A    between atoms: _377  and  _379
REMARK  150  A    between atoms: _379  and  _380
REMARK  151  A    between atoms: _379  and  _382
REMARK  152  A    between atoms: _382  and  _383
REMARK  153  A    between atoms: _383  and  _384
REMARK  154  A    between atoms: _384  and  _385
REMARK  155  A    between atoms: _394  and  _396
REMARK  156  A    between atoms: _396  and  _397
REMARK  157  A    between atoms: _396  and  _399
REMARK  158  A    between atoms: _399  and  _400
REMARK  159  A    between atoms: _410  and  _412
REMARK  160  A    between atoms: _412  and  _413
REMARK  161  A    between atoms: _412  and  _415
REMARK  162  A    between atoms: _415  and  _416
REMARK  163  A    between atoms: _421  and  _423
REMARK  164  A    between atoms: _423  and  _424
REMARK  165  A    between atoms: _426  and  _428
REMARK  166  A    between atoms: _428  and  _429
REMARK  167  A    between atoms: _428  and  _431
REMARK  168  A    between atoms: _434  and  _436
REMARK  169  A    between atoms: _436  and  _437
REMARK  170  A    between atoms: _440  and  _442
REMARK  171  A    between atoms: _442  and  _443
REMARK  172  A    between atoms: _442  and  _445
REMARK  173  A    between atoms: _445  and  _446
REMARK  174  A    between atoms: _451  and  _453
REMARK  175  A    between atoms: _453  and  _454
REMARK  176  A    between atoms: _453  and  _456
REMARK  177  A    between atoms: _456  and  _457
REMARK  178  A    between atoms: _457  and  _458
REMARK  179  A    between atoms: _458  and  _459
REMARK  180  A    between atoms: _459  and  _460
REMARK  181  A    between atoms: _464  and  _466
REMARK  182  A    between atoms: _466  and  _467
REMARK  183  A    between atoms: _466  and  _469
REMARK  184  A    between atoms: _469  and  _470
REMARK  185  A    between atoms: _475  and  _477
REMARK  186  A    between atoms: _477  and  _478
REMARK  187  A    between atoms: _480  and  _482
REMARK  188  A    between atoms: _482  and  _483
REMARK  189  A    between atoms: _482  and  _485
REMARK  190  A    between atoms: _485  and  _486
REMARK  191  A    between atoms: _486  and  _487
REMARK  192  A    between atoms: _487  and  _488
REMARK  193  A    between atoms: _488  and  _489
REMARK  194  A    between atoms: _493  and  _495
REMARK  195  A    between atoms: _495  and  _496
REMARK  196  A    between atoms: _495  and  _498
REMARK  197  A    between atoms: _498  and  _499
REMARK  198  A    between atoms: _499  and  _500
REMARK  199  A    between atoms: _500  and  _501
REMARK  200  A    between atoms: _510  and  _512
REMARK  201  A    between atoms: _512  and  _513
REMARK  202  A    between atoms: _512  and  _515
REMARK  203  A    between atoms: _515  and  _516
REMARK  204  A    between atoms: _521  and  _522
REMARK  205  A    between atoms: _524  and  _526
REMARK  206  A    between atoms: _526  and  _527
REMARK  207  A    between atoms: _526  and  _529
REMARK  208  A    between atoms: _529  and  _530
REMARK  209  A    between atoms: _530  and  _531
REMARK  210  A    between atoms: _531  and  _532
REMARK  211  A    between atoms: _532  and  _533
REMARK  212  A    between atoms: _537  and  _539
REMARK  213  A    between atoms: _539  and  _540
REMARK  214  A    between atoms: _539  and  _542
REMARK  215  A    between atoms: _542  and  _543
REMARK  216  A    between atoms: _545  and  _547
REMARK  217  A    between atoms: _547  and  _548
REMARK  218  A    between atoms: _547  and  _550
REMARK  219  A    between atoms: _550  and  _551
REMARK  220  A    between atoms: _554  and  _556
REMARK  221  A    between atoms: _556  and  _557
REMARK  222  A    between atoms: _556  and  _559
REMARK  223  A    between atoms: _559  and  _560
REMARK  224  A    between atoms: _560  and  _561
REMARK  225  A    between atoms: _564  and  _566
REMARK  226  A    between atoms: _566  and  _567
REMARK  227  A    between atoms: _570  and  _572
REMARK  228  A    between atoms: _572  and  _573
REMARK  229  A    between atoms: _572  and  _575
REMARK  230  A    between atoms: _575  and  _576
REMARK  231  A    between atoms: _578  and  _580
REMARK  232  A    between atoms: _580  and  _581
REMARK  233  A    between atoms: _583  and  _585
REMARK  234  A    between atoms: _585  and  _586
REMARK  235  A    between atoms: _585  and  _588
REMARK  236  A    between atoms: _588  and  _589
REMARK  237  A    between atoms: _592  and  _594
REMARK  238  A    between atoms: _594  and  _595
REMARK  239  A    between atoms: _597  and  _599
REMARK  240  A    between atoms: _599  and  _600
REMARK  241  A    between atoms: _599  and  _602
REMARK  242  A    between atoms: _602  and  _603
REMARK  243  A    between atoms: _608  and  _610
REMARK  244  A    between atoms: _610  and  _611
REMARK  245  A    between atoms: _610  and  _613
REMARK  246  A    between atoms: _613  and  _614
REMARK  247  A    between atoms: _614  and  _615
REMARK  248  A    between atoms: _622  and  _623
REMARK  249  A    between atoms: _623  and  _639
REMARK  250  A    between atoms: _624  and  _626
REMARK  251  A    between atoms: _626  and  _627
REMARK  252  A    between atoms: _627  and  _628
REMARK  253  A    between atoms: _632  and  _634
REMARK  254  A    between atoms: _634  and  _635
REMARK  255  A    between atoms: _634  and  _642
REMARK  256  A    between atoms: _635  and  _636
REMARK  257  A    between atoms: _636  and  _637
REMARK  258  A    between atoms: _637  and  _638
REMARK  259  A    between atoms: _638  and  _639
REMARK  260  A    between atoms: _644  and  _646
REMARK  261  A    between atoms: _646  and  _647
REMARK  262  A    between atoms: _646  and  _649
REMARK  263  A    between atoms: _649  and  _650
REMARK  264  A    between atoms: _653  and  _655
REMARK  265  A    between atoms: _655  and  _656
REMARK  266  A    between atoms: _658  and  _660
REMARK  267  A    between atoms: _660  and  _661
REMARK  268  A    between atoms: _664  and  _666
REMARK  269  A    between atoms: _666  and  _667
REMARK  270  A    between atoms: _666  and  _669
REMARK  271  A    between atoms: _669  and  _670
REMARK  272  A    between atoms: _675  and  _676
REMARK                            x       y       z     vdW  Elec       q    Type
REMARK                         _______ _______ _______ _____ _____    ______ ____
ROOT
ATOM      1  O   HOH     1      26.333  16.601  28.727  0.00  0.00    +0.000 OA
ENDROOT
TORSDOF 0
REMARK  Name = ../refined-set-2016/3l7a/3l7a_pocket.pdb
REMARK  272 active torsions:
REMARK  status: ('A' for Active; 'I' for Inactive)
REMARK    1  A    between atoms: _1  and  _3
REMARK    2  A    between atoms: _3  and  _4
REMARK    3  A    between atoms: _3  and  _6
REMARK    4  A    between atoms: _6  and  _7
REMARK    5  A    between atoms: _12  and  _13
REMARK    6  A    between atoms: _15  and  _17
REMARK    7  A    between atoms: _17  and  _18
REMARK    8  A    between atoms: _17  and  _20
REMARK    9  A    between atoms: _20  and  _21
REMARK   10  A    between atoms: _24  and  _26
REMARK   11  A    between atoms: _26  and  _27
REMARK   12  A    between atoms: _26  and  _29
REMARK   13  A    between atoms: _29  and  _30
REMARK   14  A    between atoms: _30  and  _31
REMARK   15  A    between atoms: _34  and  _36
REMARK   16  A    between atoms: _36  and  _37
REMARK   17  A    between atoms: _36  and  _39
REMARK   18  A    between atoms: _39  and  _40
REMARK   19  A    between atoms: _45  and  _46
REMARK   20  A    between atoms: _48  and  _50
REMARK   21  A    between atoms: _50  and  _51
REMARK   22  A    between atoms: _50  and  _53
REMARK   23  A    between atoms: _53  and  _54
REMARK   24  A    between atoms: _59  and  _61
REMARK   25  A    between atoms: _61  and  _62
REMARK   26  A    between atoms: _64  and  _66
REMARK   27  A    between atoms: _66  and  _67
REMARK   28  A    between atoms: _69  and  _71
REMARK   29  A    between atoms: _71  and  _72
REMARK   30  A    between atoms: _71  and  _74
REMARK   31  A    between atoms: _74  and  _75
REMARK   32  A    between atoms: _78  and  _80
REMARK   33  A    between atoms: _80  and  _81
REMARK   34  A    between atoms: _83  and  _85
REMARK   35  A    between atoms: _85  and  _86
REMARK   36  A    between atoms: _85  and  _88
REMARK   37  A    between atoms: _88  and  _89
REMARK   38  A    between atoms: _89  and  _90
REMARK   39  A    between atoms: _90  and  _91
REMARK   40  A    between atoms: _100  and  _102
REMARK   41  A    between atoms: _102  and  _103
REMARK   42  A    between atoms: _102  and  _105
REMARK   43  A    between atoms: _105  and  _106
REMARK   44  A    between atoms: _109  and  _111
REMARK   45  A    between atoms: _111  and  _112
REMARK   46  A    between atoms: _115  and  _117
REMARK   47  A    between atoms: _117  and  _118
REMARK   48  A    between atoms: _117  and  _120
REMARK   49  A    between atoms: _120  and  _121
REMARK   50  A    between atoms: _127  and  _129
REMARK   51  A    between atoms: _129  and  _130
REMARK   52  A    between atoms: _129  and  _132
REMARK   53  A    between atoms: _132  and  _133
REMARK   54  A    between atoms: _138  and  _139
REMARK   55  A    between atoms: _142  and  _143
REMARK   56  A    between atoms: _148  and  _150
REMARK   57  A    between atoms: _150  and  _151
REMARK   58  A    between atoms: _150  and  _153
REMARK   59  A    between atoms: _153  and  _154
REMARK   60  A    between atoms: _159  and  _161
REMARK   61  A    between atoms: _161  and  _162
REMARK   62  A    between atoms: _161  and  _164
REMARK   63  A    between atoms: _164  and  _165
REMARK   64  A    between atoms: _168  and  _170
REMARK   65  A    between atoms: _170  and  _171
REMARK   66  A    between atoms: _170  and  _173
REMARK   67  A    between atoms: _173  and  _174
REMARK   68  A    between atoms: _179  and  _181
REMARK   69  A    between atoms: _181  and  _182
REMARK   70  A    between atoms: _181  and  _184
REMARK   71  A    between atoms: _184  and  _185
REMARK   72  A    between atoms: _191  and  _193
REMARK   73  A    between atoms: _193  and  _194
REMARK   74  A    between atoms: _193  and  _196
REMARK   75  A    between atoms: _196  and  _197
REMARK   76  A    between atoms: _203  and  _205
REMARK   77  A    between atoms: _205  and  _206
REMARK   78  A    between atoms: _205  and  _208
REMARK   79  A    between atoms: _208  and  _209
REMARK   80  A    between atoms: _209  and  _210
REMARK   81  A    between atoms: _213  and  _215
REMARK   82  A    between atoms: _215  and  _216
REMARK   83  A    between atoms: _218  and  _220
REMARK   84  A    between atoms: _220  and  _221
REMARK   85  A    between atoms: _220  and  _223
REMARK   86  A    between atoms: _223  and  _224
REMARK   87  A    between atoms: _224  and  _225
REMARK   88  A    between atoms: _225  and  _226
REMARK   89  A    between atoms: _235  and  _237
REMARK   90  A    between atoms: _237  and  _238
REMARK   91  A    between atoms: _237  and  _240
REMARK   92  A    between atoms: _240  and  _241
REMARK   93  A    between atoms: _241  and  _242
REMARK   94  A    between atoms: _245  and  _247
REMARK   95  A    between atoms: _247  and  _248
REMARK   96  A    between atoms: _247  and  _250
REMARK   97  A    between atoms: _250  and  _251
REMARK   98  A    between atoms: _256  and  _258
REMARK   99  A    between atoms: _258  and  _259
REMARK  100  A    between atoms: _258  and  _261
REMARK  101  A    between atoms: _261  and  _262
REMARK  102  A    between atoms: _265  and  _267
REMARK  103  A    between atoms: _267  and  _268
REMARK  104  A    between atoms: _267  and  _270
REMARK  105  A    between atoms: _270  and  _271
REMARK  106  A    between atoms: _274  and  _276
REMARK  107  A    between atoms: _276  and  _277
REMARK  108  A    between atoms: _276  and  _279
REMARK  109  A    between atoms: _279  and  _280
REMARK  110  A    between atoms: _285  and  _287
REMARK  111  A    between atoms: _287  and  _288
REMARK  112  A    between atoms: _287  and  _290
REMARK  113  A    between atoms: _290  and  _291
REMARK  114  A    between atoms: _294  and  _296
REMARK  115  A    between atoms: _296  and  _297
REMARK  116  A    between atoms: _296  and  _299
REMARK  117  A    between atoms: _299  and  _300
REMARK  118  A    between atoms: _305  and  _307
REMARK  119  A    between atoms: _307  and  _308
REMARK  120  A    between atoms: _307  and  _310
REMARK  121  A    between atoms: _310  and  _311
REMARK  122  A    between atoms: _316  and  _318
REMARK  123  A    between atoms: _318  and  _319
REMARK  124  A    between atoms: _318  and  _321
REMARK  125  A    between atoms: _321  and  _322
REMARK  126  A    between atoms: _325  and  _327
REMARK  127  A    between atoms: _327  and  _328
REMARK  128  A    between atoms: _327  and  _330
REMARK  129  A    between atoms: _333  and  _335
REMARK  130  A    between atoms: _335  and  _336
REMARK  131  A    between atoms: _335  and  _338
REMARK  132  A    between atoms: _338  and  _339
REMARK  133  A    between atoms: _342  and  _344
REMARK  134  A    between atoms: _344  and  _345
REMARK  135  A    between atoms: _344  and  _347
REMARK  136  A    between atoms: _347  and  _348
REMARK  137  A    between atoms: _348  and  _349
REMARK  138  A    between atoms: _352  and  _354
REMARK  139  A    between atoms: _354  and  _355
REMARK  140  A    between atoms: _358  and  _360
REMARK  141  A    between atoms: _360  and  _361
REMARK  142  A    between atoms: _360  and  _363
REMARK  143  A    between atoms: _363  and  _364
REMARK  144  A    between atoms: _367  and  _369
REMARK  145  A    between atoms: _369  and  _370
REMARK  146  A    between atoms: _369  and  _372
REMARK  147  A    between atoms: _372  and  _373
REMARK  148  A    between atoms: _373  and  _374
REMARK  149  A    between atoms: _377  and  _379
REMARK  150  A    between atoms: _379  and  _380
REMARK  151  A    between atoms: _379  and  _382
REMARK  152  A    between atoms: _382  and  _383
REMARK  153  A    between atoms: _383  and  _384
REMARK  154  A    between atoms: _384  and  _385
REMARK  155  A    between atoms: _394  and  _396
REMARK  156  A    between atoms: _396  and  _397
REMARK  157  A    between atoms: _396  and  _399
REMARK  158  A    between atoms: _399  and  _400
REMARK  159  A    between atoms: _410  and  _412
REMARK  160  A    between atoms: _412  and  _413
REMARK  161  A    between atoms: _412  and  _415
REMARK  162  A    between atoms: _415  and  _416
REMARK  163  A    between atoms: _421  and  _423
REMARK  164  A    between atoms: _423  and  _424
REMARK  165  A    between atoms: _426  and  _428
REMARK  166  A    between atoms: _428  and  _429
REMARK  167  A    between atoms: _428  and  _431
REMARK  168  A    between atoms: _434  and  _436
REMARK  169  A    between atoms: _436  and  _437
REMARK  170  A    between atoms: _440  and  _442
REMARK  171  A    between atoms: _442  and  _443
REMARK  172  A    between atoms: _442  and  _445
REMARK  173  A    between atoms: _445  and  _446
REMARK  174  A    between atoms: _451  and  _453
REMARK  175  A    between atoms: _453  and  _454
REMARK  176  A    between atoms: _453  and  _456
REMARK  177  A    between atoms: _456  and  _457
REMARK  178  A    between atoms: _457  and  _458
REMARK  179  A    between atoms: _458  and  _459
REMARK  180  A    between atoms: _459  and  _460
REMARK  181  A    between atoms: _464  and  _466
REMARK  182  A    between atoms: _466  and  _467
REMARK  183  A    between atoms: _466  and  _469
REMARK  184  A    between atoms: _469  and  _470
REMARK  185  A    between atoms: _475  and  _477
REMARK  186  A    between atoms: _477  and  _478
REMARK  187  A    between atoms: _480  and  _482
REMARK  188  A    between atoms: _482  and  _483
REMARK  189  A    between atoms: _482  and  _485
REMARK  190  A    between atoms: _485  and  _486
REMARK  191  A    between atoms: _486  and  _487
REMARK  192  A    between atoms: _487  and  _488
REMARK  193  A    between atoms: _488  and  _489
REMARK  194  A    between atoms: _493  and  _495
REMARK  195  A    between atoms: _495  and  _496
REMARK  196  A    between atoms: _495  and  _498
REMARK  197  A    between atoms: _498  and  _499
REMARK  198  A    between atoms: _499  and  _500
REMARK  199  A    between atoms: _500  and  _501
REMARK  200  A    between atoms: _510  and  _512
REMARK  201  A    between atoms: _512  and  _513
REMARK  202  A    between atoms: _512  and  _515
REMARK  203  A    between atoms: _515  and  _516
REMARK  204  A    between atoms: _521  and  _522
REMARK  205  A    between atoms: _524  and  _526
REMARK  206  A    between atoms: _526  and  _527
REMARK  207  A    between atoms: _526  and  _529
REMARK  208  A    between atoms: _529  and  _530
REMARK  209  A    between atoms: _530  and  _531
REMARK  210  A    between atoms: _531  and  _532
REMARK  211  A    between atoms: _532  and  _533
REMARK  212  A    between atoms: _537  and  _539
REMARK  213  A    between atoms: _539  and  _540
REMARK  214  A    between atoms: _539  and  _542
REMARK  215  A    between atoms: _542  and  _543
REMARK  216  A    between atoms: _545  and  _547
REMARK  217  A    between atoms: _547  and  _548
REMARK  218  A    between atoms: _547  and  _550
REMARK  219  A    between atoms: _550  and  _551
REMARK  220  A    between atoms: _554  and  _556
REMARK  221  A    between atoms: _556  and  _557
REMARK  222  A    between atoms: _556  and  _559
REMARK  223  A    between atoms: _559  and  _560
REMARK  224  A    between atoms: _560  and  _561
REMARK  225  A    between atoms: _564  and  _566
REMARK  226  A    between atoms: _566  and  _567
REMARK  227  A    between atoms: _570  and  _572
REMARK  228  A    between atoms: _572  and  _573
REMARK  229  A    between atoms: _572  and  _575
REMARK  230  A    between atoms: _575  and  _576
REMARK  231  A    between atoms: _578  and  _580
REMARK  232  A    between atoms: _580  and  _581
REMARK  233  A    between atoms: _583  and  _585
REMARK  234  A    between atoms: _585  and  _586
REMARK  235  A    between atoms: _585  and  _588
REMARK  236  A    between atoms: _588  and  _589
REMARK  237  A    between atoms: _592  and  _594
REMARK  238  A    between atoms: _594  and  _595
REMARK  239  A    between atoms: _597  and  _599
REMARK  240  A    between atoms: _599  and  _600
REMARK  241  A    between atoms: _599  and  _602
REMARK  242  A    between atoms: _602  and  _603
REMARK  243  A    between atoms: _608  and  _610
REMARK  244  A    between atoms: _610  and  _611
REMARK  245  A    between atoms: _610  and  _613
REMARK  246  A    between atoms: _613  and  _614
REMARK  247  A    between atoms: _614  and  _615
REMARK  248  A    between atoms: _622  and  _623
REMARK  249  A    between atoms: _623  and  _639
REMARK  250  A    between atoms: _624  and  _626
REMARK  251  A    between atoms: _626  and  _627
REMARK  252  A    between atoms: _627  and  _628
REMARK  253  A    between atoms: _632  and  _634
REMARK  254  A    between atoms: _634  and  _635
REMARK  255  A    between atoms: _634  and  _642
REMARK  256  A    between atoms: _635  and  _636
REMARK  257  A    between atoms: _636  and  _637
REMARK  258  A    between atoms: _637  and  _638
REMARK  259  A    between atoms: _638  and  _639
REMARK  260  A    between atoms: _644  and  _646
REMARK  261  A    between atoms: _646  and  _647
REMARK  262  A    between atoms: _646  and  _649
REMARK  263  A    between atoms: _649  and  _650
REMARK  264  A    between atoms: _653  and  _655
REMARK  265  A    between atoms: _655  and  _656
REMARK  266  A    between atoms: _658  and  _660
REMARK  267  A    between atoms: _660  and  _661
REMARK  268  A    between atoms: _664  and  _666
REMARK  269  A    between atoms: _666  and  _667
REMARK  270  A    between atoms: _666  and  _669
REMARK  271  A    between atoms: _669  and  _670
REMARK  272  A    between atoms: _675  and  _676
REMARK                            x       y       z     vdW  Elec       q    Type
REMARK                         _______ _______ _______ _____ _____    ______ ____
ROOT
ATOM      1  O   HOH     1      44.254  23.077  32.302  0.00  0.00    +0.000 OA
ENDROOT
TORSDOF 0
REMARK  Name = ../refined-set-2016/3l7a/3l7a_pocket.pdb
REMARK  272 active torsions:
REMARK  status: ('A' for Active; 'I' for Inactive)
REMARK    1  A    between atoms: _1  and  _3
REMARK    2  A    between atoms: _3  and  _4
REMARK    3  A    between atoms: _3  and  _6
REMARK    4  A    between atoms: _6  and  _7
REMARK    5  A    between atoms: _12  and  _13
REMARK    6  A    between atoms: _15  and  _17
REMARK    7  A    between atoms: _17  and  _18
REMARK    8  A    between atoms: _17  and  _20
REMARK    9  A    between atoms: _20  and  _21
REMARK   10  A    between atoms: _24  and  _26
REMARK   11  A    between atoms: _26  and  _27
REMARK   12  A    between atoms: _26  and  _29
REMARK   13  A    between atoms: _29  and  _30
REMARK   14  A    between atoms: _30  and  _31
REMARK   15  A    between atoms: _34  and  _36
REMARK   16  A    between atoms: _36  and  _37
REMARK   17  A    between atoms: _36  and  _39
REMARK   18  A    between atoms: _39  and  _40
REMARK   19  A    between atoms: _45  and  _46
REMARK   20  A    between atoms: _48  and  _50
REMARK   21  A    between atoms: _50  and  _51
REMARK   22  A    between atoms: _50  and  _53
REMARK   23  A    between atoms: _53  and  _54
REMARK   24  A    between atoms: _59  and  _61
REMARK   25  A    between atoms: _61  and  _62
REMARK   26  A    between atoms: _64  and  _66
REMARK   27  A    between atoms: _66  and  _67
REMARK   28  A    between atoms: _69  and  _71
REMARK   29  A    between atoms: _71  and  _72
REMARK   30  A    between atoms: _71  and  _74
REMARK   31  A    between atoms: _74  and  _75
REMARK   32  A    between atoms: _78  and  _80
REMARK   33  A    between atoms: _80  and  _81
REMARK   34  A    between atoms: _83  and  _85
REMARK   35  A    between atoms: _85  and  _86
REMARK   36  A    between atoms: _85  and  _88
REMARK   37  A    between atoms: _88  and  _89
REMARK   38  A    between atoms: _89  and  _90
REMARK   39  A    between atoms: _90  and  _91
REMARK   40  A    between atoms: _100  and  _102
REMARK   41  A    between atoms: _102  and  _103
REMARK   42  A    between atoms: _102  and  _105
REMARK   43  A    between atoms: _105  and  _106
REMARK   44  A    between atoms: _109  and  _111
REMARK   45  A    between atoms: _111  and  _112
REMARK   46  A    between atoms: _115  and  _117
REMARK   47  A    between atoms: _117  and  _118
REMARK   48  A    between atoms: _117  and  _120
REMARK   49  A    between atoms: _120  and  _121
REMARK   50  A    between atoms: _127  and  _129
REMARK   51  A    between atoms: _129  and  _130
REMARK   52  A    between atoms: _129  and  _132
REMARK   53  A    between atoms: _132  and  _133
REMARK   54  A    between atoms: _138  and  _139
REMARK   55  A    between atoms: _142  and  _143
REMARK   56  A    between atoms: _148  and  _150
REMARK   57  A    between atoms: _150  and  _151
REMARK   58  A    between atoms: _150  and  _153
REMARK   59  A    between atoms: _153  and  _154
REMARK   60  A    between atoms: _159  and  _161
REMARK   61  A    between atoms: _161  and  _162
REMARK   62  A    between atoms: _161  and  _164
REMARK   63  A    between atoms: _164  and  _165
REMARK   64  A    between atoms: _168  and  _170
REMARK   65  A    between atoms: _170  and  _171
REMARK   66  A    between atoms: _170  and  _173
REMARK   67  A    between atoms: _173  and  _174
REMARK   68  A    between atoms: _179  and  _181
REMARK   69  A    between atoms: _181  and  _182
REMARK   70  A    between atoms: _181  and  _184
REMARK   71  A    between atoms: _184  and  _185
REMARK   72  A    between atoms: _191  and  _193
REMARK   73  A    between atoms: _193  and  _194
REMARK   74  A    between atoms: _193  and  _196
REMARK   75  A    between atoms: _196  and  _197
REMARK   76  A    between atoms: _203  and  _205
REMARK   77  A    between atoms: _205  and  _206
REMARK   78  A    between atoms: _205  and  _208
REMARK   79  A    between atoms: _208  and  _209
REMARK   80  A    between atoms: _209  and  _210
REMARK   81  A    between atoms: _213  and  _215
REMARK   82  A    between atoms: _215  and  _216
REMARK   83  A    between atoms: _218  and  _220
REMARK   84  A    between atoms: _220  and  _221
REMARK   85  A    between atoms: _220  and  _223
REMARK   86  A    between atoms: _223  and  _224
REMARK   87  A    between atoms: _224  and  _225
REMARK   88  A    between atoms: _225  and  _226
REMARK   89  A    between atoms: _235  and  _237
REMARK   90  A    between atoms: _237  and  _238
REMARK   91  A    between atoms: _237  and  _240
REMARK   92  A    between atoms: _240  and  _241
REMARK   93  A    between atoms: _241  and  _242
REMARK   94  A    between atoms: _245  and  _247
REMARK   95  A    between atoms: _247  and  _248
REMARK   96  A    between atoms: _247  and  _250
REMARK   97  A    between atoms: _250  and  _251
REMARK   98  A    between atoms: _256  and  _258
REMARK   99  A    between atoms: _258  and  _259
REMARK  100  A    between atoms: _258  and  _261
REMARK  101  A    between atoms: _261  and  _262
REMARK  102  A    between atoms: _265  and  _267
REMARK  103  A    between atoms: _267  and  _268
REMARK  104  A    between atoms: _267  and  _270
REMARK  105  A    between atoms: _270  and  _271
REMARK  106  A    between atoms: _274  and  _276
REMARK  107  A    between atoms: _276  and  _277
REMARK  108  A    between atoms: _276  and  _279
REMARK  109  A    between atoms: _279  and  _280
REMARK  110  A    between atoms: _285  and  _287
REMARK  111  A    between atoms: _287  and  _288
REMARK  112  A    between atoms: _287  and  _290
REMARK  113  A    between atoms: _290  and  _291
REMARK  114  A    between atoms: _294  and  _296
REMARK  115  A    between atoms: _296  and  _297
REMARK  116  A    between atoms: _296  and  _299
REMARK  117  A    between atoms: _299  and  _300
REMARK  118  A    between atoms: _305  and  _307
REMARK  119  A    between atoms: _307  and  _308
REMARK  120  A    between atoms: _307  and  _310
REMARK  121  A    between atoms: _310  and  _311
REMARK  122  A    between atoms: _316  and  _318
REMARK  123  A    between atoms: _318  and  _319
REMARK  124  A    between atoms: _318  and  _321
REMARK  125  A    between atoms: _321  and  _322
REMARK  126  A    between atoms: _325  and  _327
REMARK  127  A    between atoms: _327  and  _328
REMARK  128  A    between atoms: _327  and  _330
REMARK  129  A    between atoms: _333  and  _335
REMARK  130  A    between atoms: _335  and  _336
REMARK  131  A    between atoms: _335  and  _338
REMARK  132  A    between atoms: _338  and  _339
REMARK  133  A    between atoms: _342  and  _344
REMARK  134  A    between atoms: _344  and  _345
REMARK  135  A    between atoms: _344  and  _347
REMARK  136  A    between atoms: _347  and  _348
REMARK  137  A    between atoms: _348  and  _349
REMARK  138  A    between atoms: _352  and  _354
REMARK  139  A    between atoms: _354  and  _355
REMARK  140  A    between atoms: _358  and  _360
REMARK  141  A    between atoms: _360  and  _361
REMARK  142  A    between atoms: _360  and  _363
REMARK  143  A    between atoms: _363  and  _364
REMARK  144  A    between atoms: _367  and  _369
REMARK  145  A    between atoms: _369  and  _370
REMARK  146  A    between atoms: _369  and  _372
REMARK  147  A    between atoms: _372  and  _373
REMARK  148  A    between atoms: _373  and  _374
REMARK  149  A    between atoms: _377  and  _379
REMARK  150  A    between atoms: _379  and  _380
REMARK  151  A    between atoms: _379  and  _382
REMARK  152  A    between atoms: _382  and  _383
REMARK  153  A    between atoms: _383  and  _384
REMARK  154  A    between atoms: _384  and  _385
REMARK  155  A    between atoms: _394  and  _396
REMARK  156  A    between atoms: _396  and  _397
REMARK  157  A    between atoms: _396  and  _399
REMARK  158  A    between atoms: _399  and  _400
REMARK  159  A    between atoms: _410  and  _412
REMARK  160  A    between atoms: _412  and  _413
REMARK  161  A    between atoms: _412  and  _415
REMARK  162  A    between atoms: _415  and  _416
REMARK  163  A    between atoms: _421  and  _423
REMARK  164  A    between atoms: _423  and  _424
REMARK  165  A    between atoms: _426  and  _428
REMARK  166  A    between atoms: _428  and  _429
REMARK  167  A    between atoms: _428  and  _431
REMARK  168  A    between atoms: _434  and  _436
REMARK  169  A    between atoms: _436  and  _437
REMARK  170  A    between atoms: _440  and  _442
REMARK  171  A    between atoms: _442  and  _443
REMARK  172  A    between atoms: _442  and  _445
REMARK  173  A    between atoms: _445  and  _446
REMARK  174  A    between atoms: _451  and  _453
REMARK  175  A    between atoms: _453  and  _454
REMARK  176  A    between atoms: _453  and  _456
REMARK  177  A    between atoms: _456  and  _457
REMARK  178  A    between atoms: _457  and  _458
REMARK  179  A    between atoms: _458  and  _459
REMARK  180  A    between atoms: _459  and  _460
REMARK  181  A    between atoms: _464  and  _466
REMARK  182  A    between atoms: _466  and  _467
REMARK  183  A    between atoms: _466  and  _469
REMARK  184  A    between atoms: _469  and  _470
REMARK  185  A    between atoms: _475  and  _477
REMARK  186  A    between atoms: _477  and  _478
REMARK  187  A    between atoms: _480  and  _482
REMARK  188  A    between atoms: _482  and  _483
REMARK  189  A    between atoms: _482  and  _485
REMARK  190  A    between atoms: _485  and  _486
REMARK  191  A    between atoms: _486  and  _487
REMARK  192  A    between atoms: _487  and  _488
REMARK  193  A    between atoms: _488  and  _489
REMARK  194  A    between atoms: _493  and  _495
REMARK  195  A    between atoms: _495  and  _496
REMARK  196  A    between atoms: _495  and  _498
REMARK  197  A    between atoms: _498  and  _499
REMARK  198  A    between atoms: _499  and  _500
REMARK  199  A    between atoms: _500  and  _501
REMARK  200  A    between atoms: _510  and  _512
REMARK  201  A    between atoms: _512  and  _513
REMARK  202  A    between atoms: _512  and  _515
REMARK  203  A    between atoms: _515  and  _516
REMARK  204  A    between atoms: _521  and  _522
REMARK  205  A    between atoms: _524  and  _526
REMARK  206  A    between atoms: _526  and  _527
REMARK  207  A    between atoms: _526  and  _529
REMARK  208  A    between atoms: _529  and  _530
REMARK  209  A    between atoms: _530  and  _531
REMARK  210  A    between atoms: _531  and  _532
REMARK  211  A    between atoms: _532  and  _533
REMARK  212  A    between atoms: _537  and  _539
REMARK  213  A    between atoms: _539  and  _540
REMARK  214  A    between atoms: _539  and  _542
REMARK  215  A    between atoms: _542  and  _543
REMARK  216  A    between atoms: _545  and  _547
REMARK  217  A    between atoms: _547  and  _548
REMARK  218  A    between atoms: _547  and  _550
REMARK  219  A    between atoms: _550  and  _551
REMARK  220  A    between atoms: _554  and  _556
REMARK  221  A    between atoms: _556  and  _557
REMARK  222  A    between atoms: _556  and  _559
REMARK  223  A    between atoms: _559  and  _560
REMARK  224  A    between atoms: _560  and  _561
REMARK  225  A    between atoms: _564  and  _566
REMARK  226  A    between atoms: _566  and  _567
REMARK  227  A    between atoms: _570  and  _572
REMARK  228  A    between atoms: _572  and  _573
REMARK  229  A    between atoms: _572  and  _575
REMARK  230  A    between atoms: _575  and  _576
REMARK  231  A    between atoms: _578  and  _580
REMARK  232  A    between atoms: _580  and  _581
REMARK  233  A    between atoms: _583  and  _585
REMARK  234  A    between atoms: _585  and  _586
REMARK  235  A    between atoms: _585  and  _588
REMARK  236  A    between atoms: _588  and  _589
REMARK  237  A    between atoms: _592  and  _594
REMARK  238  A    between atoms: _594  and  _595
REMARK  239  A    between atoms: _597  and  _599
REMARK  240  A    between atoms: _599  and  _600
REMARK  241  A    between atoms: _599  and  _602
REMARK  242  A    between atoms: _602  and  _603
REMARK  243  A    between atoms: _608  and  _610
REMARK  244  A    between atoms: _610  and  _611
REMARK  245  A    between atoms: _610  and  _613
REMARK  246  A    between atoms: _613  and  _614
REMARK  247  A    between atoms: _614  and  _615
REMARK  248  A    between atoms: _622  and  _623
REMARK  249  A    between atoms: _623  and  _639
REMARK  250  A    between atoms: _624  and  _626
REMARK  251  A    between atoms: _626  and  _627
REMARK  252  A    between atoms: _627  and  _628
REMARK  253  A    between atoms: _632  and  _634
REMARK  254  A    between atoms: _634  and  _635
REMARK  255  A    between atoms: _634  and  _642
REMARK  256  A    between atoms: _635  and  _636
REMARK  257  A    between atoms: _636  and  _637
REMARK  258  A    between atoms: _637  and  _638
REMARK  259  A    between atoms: _638  and  _639
REMARK  260  A    between atoms: _644  and  _646
REMARK  261  A    between atoms: _646  and  _647
REMARK  262  A    between atoms: _646  and  _649
REMARK  263  A    between atoms: _649  and  _650
REMARK  264  A    between atoms: _653  and  _655
REMARK  265  A    between atoms: _655  and  _656
REMARK  266  A    between atoms: _658  and  _660
REMARK  267  A    between atoms: _660  and  _661
REMARK  268  A    between atoms: _664  and  _666
REMARK  269  A    between atoms: _666  and  _667
REMARK  270  A    between atoms: _666  and  _669
REMARK  271  A    between atoms: _669  and  _670
REMARK  272  A    between atoms: _675  and  _676
REMARK                            x       y       z     vdW  Elec       q    Type
REMARK                         _______ _______ _______ _____ _____    ______ ____
ROOT
ATOM      1  O   HOH     1      30.314  26.012  29.074  0.00  0.00    +0.000 OA
ENDROOT
TORSDOF 0
REMARK  Name = ../refined-set-2016/3l7a/3l7a_pocket.pdb
REMARK  272 active torsions:
REMARK  status: ('A' for Active; 'I' for Inactive)
REMARK    1  A    between atoms: _1  and  _3
REMARK    2  A    between atoms: _3  and  _4
REMARK    3  A    between atoms: _3  and  _6
REMARK    4  A    between atoms: _6  and  _7
REMARK    5  A    between atoms: _12  and  _13
REMARK    6  A    between atoms: _15  and  _17
REMARK    7  A    between atoms: _17  and  _18
REMARK    8  A    between atoms: _17  and  _20
REMARK    9  A    between atoms: _20  and  _21
REMARK   10  A    between atoms: _24  and  _26
REMARK   11  A    between atoms: _26  and  _27
REMARK   12  A    between atoms: _26  and  _29
REMARK   13  A    between atoms: _29  and  _30
REMARK   14  A    between atoms: _30  and  _31
REMARK   15  A    between atoms: _34  and  _36
REMARK   16  A    between atoms: _36  and  _37
REMARK   17  A    between atoms: _36  and  _39
REMARK   18  A    between atoms: _39  and  _40
REMARK   19  A    between atoms: _45  and  _46
REMARK   20  A    between atoms: _48  and  _50
REMARK   21  A    between atoms: _50  and  _51
REMARK   22  A    between atoms: _50  and  _53
REMARK   23  A    between atoms: _53  and  _54
REMARK   24  A    between atoms: _59  and  _61
REMARK   25  A    between atoms: _61  and  _62
REMARK   26  A    between atoms: _64  and  _66
REMARK   27  A    between atoms: _66  and  _67
REMARK   28  A    between atoms: _69  and  _71
REMARK   29  A    between atoms: _71  and  _72
REMARK   30  A    between atoms: _71  and  _74
REMARK   31  A    between atoms: _74  and  _75
REMARK   32  A    between atoms: _78  and  _80
REMARK   33  A    between atoms: _80  and  _81
REMARK   34  A    between atoms: _83  and  _85
REMARK   35  A    between atoms: _85  and  _86
REMARK   36  A    between atoms: _85  and  _88
REMARK   37  A    between atoms: _88  and  _89
REMARK   38  A    between atoms: _89  and  _90
REMARK   39  A    between atoms: _90  and  _91
REMARK   40  A    between atoms: _100  and  _102
REMARK   41  A    between atoms: _102  and  _103
REMARK   42  A    between atoms: _102  and  _105
REMARK   43  A    between atoms: _105  and  _106
REMARK   44  A    between atoms: _109  and  _111
REMARK   45  A    between atoms: _111  and  _112
REMARK   46  A    between atoms: _115  and  _117
REMARK   47  A    between atoms: _117  and  _118
REMARK   48  A    between atoms: _117  and  _120
REMARK   49  A    between atoms: _120  and  _121
REMARK   50  A    between atoms: _127  and  _129
REMARK   51  A    between atoms: _129  and  _130
REMARK   52  A    between atoms: _129  and  _132
REMARK   53  A    between atoms: _132  and  _133
REMARK   54  A    between atoms: _138  and  _139
REMARK   55  A    between atoms: _142  and  _143
REMARK   56  A    between atoms: _148  and  _150
REMARK   57  A    between atoms: _150  and  _151
REMARK   58  A    between atoms: _150  and  _153
REMARK   59  A    between atoms: _153  and  _154
REMARK   60  A    between atoms: _159  and  _161
REMARK   61  A    between atoms: _161  and  _162
REMARK   62  A    between atoms: _161  and  _164
REMARK   63  A    between atoms: _164  and  _165
REMARK   64  A    between atoms: _168  and  _170
REMARK   65  A    between atoms: _170  and  _171
REMARK   66  A    between atoms: _170  and  _173
REMARK   67  A    between atoms: _173  and  _174
REMARK   68  A    between atoms: _179  and  _181
REMARK   69  A    between atoms: _181  and  _182
REMARK   70  A    between atoms: _181  and  _184
REMARK   71  A    between atoms: _184  and  _185
REMARK   72  A    between atoms: _191  and  _193
REMARK   73  A    between atoms: _193  and  _194
REMARK   74  A    between atoms: _193  and  _196
REMARK   75  A    between atoms: _196  and  _197
REMARK   76  A    between atoms: _203  and  _205
REMARK   77  A    between atoms: _205  and  _206
REMARK   78  A    between atoms: _205  and  _208
REMARK   79  A    between atoms: _208  and  _209
REMARK   80  A    between atoms: _209  and  _210
REMARK   81  A    between atoms: _213  and  _215
REMARK   82  A    between atoms: _215  and  _216
REMARK   83  A    between atoms: _218  and  _220
REMARK   84  A    between atoms: _220  and  _221
REMARK   85  A    between atoms: _220  and  _223
REMARK   86  A    between atoms: _223  and  _224
REMARK   87  A    between atoms: _224  and  _225
REMARK   88  A    between atoms: _225  and  _226
REMARK   89  A    between atoms: _235  and  _237
REMARK   90  A    between atoms: _237  and  _238
REMARK   91  A    between atoms: _237  and  _240
REMARK   92  A    between atoms: _240  and  _241
REMARK   93  A    between atoms: _241  and  _242
REMARK   94  A    between atoms: _245  and  _247
REMARK   95  A    between atoms: _247  and  _248
REMARK   96  A    between atoms: _247  and  _250
REMARK   97  A    between atoms: _250  and  _251
REMARK   98  A    between atoms: _256  and  _258
REMARK   99  A    between atoms: _258  and  _259
REMARK  100  A    between atoms: _258  and  _261
REMARK  101  A    between atoms: _261  and  _262
REMARK  102  A    between atoms: _265  and  _267
REMARK  103  A    between atoms: _267  and  _268
REMARK  104  A    between atoms: _267  and  _270
REMARK  105  A    between atoms: _270  and  _271
REMARK  106  A    between atoms: _274  and  _276
REMARK  107  A    between atoms: _276  and  _277
REMARK  108  A    between atoms: _276  and  _279
REMARK  109  A    between atoms: _279  and  _280
REMARK  110  A    between atoms: _285  and  _287
REMARK  111  A    between atoms: _287  and  _288
REMARK  112  A    between atoms: _287  and  _290
REMARK  113  A    between atoms: _290  and  _291
REMARK  114  A    between atoms: _294  and  _296
REMARK  115  A    between atoms: _296  and  _297
REMARK  116  A    between atoms: _296  and  _299
REMARK  117  A    between atoms: _299  and  _300
REMARK  118  A    between atoms: _305  and  _307
REMARK  119  A    between atoms: _307  and  _308
REMARK  120  A    between atoms: _307  and  _310
REMARK  121  A    between atoms: _310  and  _311
REMARK  122  A    between atoms: _316  and  _318
REMARK  123  A    between atoms: _318  and  _319
REMARK  124  A    between atoms: _318  and  _321
REMARK  125  A    between atoms: _321  and  _322
REMARK  126  A    between atoms: _325  and  _327
REMARK  127  A    between atoms: _327  and  _328
REMARK  128  A    between atoms: _327  and  _330
REMARK  129  A    between atoms: _333  and  _335
REMARK  130  A    between atoms: _335  and  _336
REMARK  131  A    between atoms: _335  and  _338
REMARK  132  A    between atoms: _338  and  _339
REMARK  133  A    between atoms: _342  and  _344
REMARK  134  A    between atoms: _344  and  _345
REMARK  135  A    between atoms: _344  and  _347
REMARK  136  A    between atoms: _347  and  _348
REMARK  137  A    between atoms: _348  and  _349
REMARK  138  A    between atoms: _352  and  _354
REMARK  139  A    between atoms: _354  and  _355
REMARK  140  A    between atoms: _358  and  _360
REMARK  141  A    between atoms: _360  and  _361
REMARK  142  A    between atoms: _360  and  _363
REMARK  143  A    between atoms: _363  and  _364
REMARK  144  A    between atoms: _367  and  _369
REMARK  145  A    between atoms: _369  and  _370
REMARK  146  A    between atoms: _369  and  _372
REMARK  147  A    between atoms: _372  and  _373
REMARK  148  A    between atoms: _373  and  _374
REMARK  149  A    between atoms: _377  and  _379
REMARK  150  A    between atoms: _379  and  _380
REMARK  151  A    between atoms: _379  and  _382
REMARK  152  A    between atoms: _382  and  _383
REMARK  153  A    between atoms: _383  and  _384
REMARK  154  A    between atoms: _384  and  _385
REMARK  155  A    between atoms: _394  and  _396
REMARK  156  A    between atoms: _396  and  _397
REMARK  157  A    between atoms: _396  and  _399
REMARK  158  A    between atoms: _399  and  _400
REMARK  159  A    between atoms: _410  and  _412
REMARK  160  A    between atoms: _412  and  _413
REMARK  161  A    between atoms: _412  and  _415
REMARK  162  A    between atoms: _415  and  _416
REMARK  163  A    between atoms: _421  and  _423
REMARK  164  A    between atoms: _423  and  _424
REMARK  165  A    between atoms: _426  and  _428
REMARK  166  A    between atoms: _428  and  _429
REMARK  167  A    between atoms: _428  and  _431
REMARK  168  A    between atoms: _434  and  _436
REMARK  169  A    between atoms: _436  and  _437
REMARK  170  A    between atoms: _440  and  _442
REMARK  171  A    between atoms: _442  and  _443
REMARK  172  A    between atoms: _442  and  _445
REMARK  173  A    between atoms: _445  and  _446
REMARK  174  A    between atoms: _451  and  _453
REMARK  175  A    between atoms: _453  and  _454
REMARK  176  A    between atoms: _453  and  _456
REMARK  177  A    between atoms: _456  and  _457
REMARK  178  A    between atoms: _457  and  _458
REMARK  179  A    between atoms: _458  and  _459
REMARK  180  A    between atoms: _459  and  _460
REMARK  181  A    between atoms: _464  and  _466
REMARK  182  A    between atoms: _466  and  _467
REMARK  183  A    between atoms: _466  and  _469
REMARK  184  A    between atoms: _469  and  _470
REMARK  185  A    between atoms: _475  and  _477
REMARK  186  A    between atoms: _477  and  _478
REMARK  187  A    between atoms: _480  and  _482
REMARK  188  A    between atoms: _482  and  _483
REMARK  189  A    between atoms: _482  and  _485
REMARK  190  A    between atoms: _485  and  _486
REMARK  191  A    between atoms: _486  and  _487
REMARK  192  A    between atoms: _487  and  _488
REMARK  193  A    between atoms: _488  and  _489
REMARK  194  A    between atoms: _493  and  _495
REMARK  195  A    between atoms: _495  and  _496
REMARK  196  A    between atoms: _495  and  _498
REMARK  197  A    between atoms: _498  and  _499
REMARK  198  A    between atoms: _499  and  _500
REMARK  199  A    between atoms: _500  and  _501
REMARK  200  A    between atoms: _510  and  _512
REMARK  201  A    between atoms: _512  and  _513
REMARK  202  A    between atoms: _512  and  _515
REMARK  203  A    between atoms: _515  and  _516
REMARK  204  A    between atoms: _521  and  _522
REMARK  205  A    between atoms: _524  and  _526
REMARK  206  A    between atoms: _526  and  _527
REMARK  207  A    between atoms: _526  and  _529
REMARK  208  A    between atoms: _529  and  _530
REMARK  209  A    between atoms: _530  and  _531
REMARK  210  A    between atoms: _531  and  _532
REMARK  211  A    between atoms: _532  and  _533
REMARK  212  A    between atoms: _537  and  _539
REMARK  213  A    between atoms: _539  and  _540
REMARK  214  A    between atoms: _539  and  _542
REMARK  215  A    between atoms: _542  and  _543
REMARK  216  A    between atoms: _545  and  _547
REMARK  217  A    between atoms: _547  and  _548
REMARK  218  A    between atoms: _547  and  _550
REMARK  219  A    between atoms: _550  and  _551
REMARK  220  A    between atoms: _554  and  _556
REMARK  221  A    between atoms: _556  and  _557
REMARK  222  A    between atoms: _556  and  _559
REMARK  223  A    between atoms: _559  and  _560
REMARK  224  A    between atoms: _560  and  _561
REMARK  225  A    between atoms: _564  and  _566
REMARK  226  A    between atoms: _566  and  _567
REMARK  227  A    between atoms: _570  and  _572
REMARK  228  A    between atoms: _572  and  _573
REMARK  229  A    between atoms: _572  and  _575
REMARK  230  A    between atoms: _575  and  _576
REMARK  231  A    between atoms: _578  and  _580
REMARK  232  A    between atoms: _580  and  _581
REMARK  233  A    between atoms: _583  and  _585
REMARK  234  A    between atoms: _585  and  _586
REMARK  235  A    between atoms: _585  and  _588
REMARK  236  A    between atoms: _588  and  _589
REMARK  237  A    between atoms: _592  and  _594
REMARK  238  A    between atoms: _594  and  _595
REMARK  239  A    between atoms: _597  and  _599
REMARK  240  A    between atoms: _599  and  _600
REMARK  241  A    between atoms: _599  and  _602
REMARK  242  A    between atoms: _602  and  _603
REMARK  243  A    between atoms: _608  and  _610
REMARK  244  A    between atoms: _610  and  _611
REMARK  245  A    between atoms: _610  and  _613
REMARK  246  A    between atoms: _613  and  _614
REMARK  247  A    between atoms: _614  and  _615
REMARK  248  A    between atoms: _622  and  _623
REMARK  249  A    between atoms: _623  and  _639
REMARK  250  A    between atoms: _624  and  _626
REMARK  251  A    between atoms: _626  and  _627
REMARK  252  A    between atoms: _627  and  _628
REMARK  253  A    between atoms: _632  and  _634
REMARK  254  A    between atoms: _634  and  _635
REMARK  255  A    between atoms: _634  and  _642
REMARK  256  A    between atoms: _635  and  _636
REMARK  257  A    between atoms: _636  and  _637
REMARK  258  A    between atoms: _637  and  _638
REMARK  259  A    between atoms: _638  and  _639
REMARK  260  A    between atoms: _644  and  _646
REMARK  261  A    between atoms: _646  and  _647
REMARK  262  A    between atoms: _646  and  _649
REMARK  263  A    between atoms: _649  and  _650
REMARK  264  A    between atoms: _653  and  _655
REMARK  265  A    between atoms: _655  and  _656
REMARK  266  A    between atoms: _658  and  _660
REMARK  267  A    between atoms: _660  and  _661
REMARK  268  A    between atoms: _664  and  _666
REMARK  269  A    between atoms: _666  and  _667
REMARK  270  A    between atoms: _666  and  _669
REMARK  271  A    between atoms: _669  and  _670
REMARK  272  A    between atoms: _675  and  _676
REMARK                            x       y       z     vdW  Elec       q    Type
REMARK                         _______ _______ _______ _____ _____    ______ ____
ROOT
ATOM      1  O   HOH     1      28.256  27.407  27.761  0.00  0.00    +0.000 OA
ENDROOT
TORSDOF 0
REMARK  Name = ../refined-set-2016/3l7a/3l7a_pocket.pdb
REMARK  272 active torsions:
REMARK  status: ('A' for Active; 'I' for Inactive)
REMARK    1  A    between atoms: _1  and  _3
REMARK    2  A    between atoms: _3  and  _4
REMARK    3  A    between atoms: _3  and  _6
REMARK    4  A    between atoms: _6  and  _7
REMARK    5  A    between atoms: _12  and  _13
REMARK    6  A    between atoms: _15  and  _17
REMARK    7  A    between atoms: _17  and  _18
REMARK    8  A    between atoms: _17  and  _20
REMARK    9  A    between atoms: _20  and  _21
REMARK   10  A    between atoms: _24  and  _26
REMARK   11  A    between atoms: _26  and  _27
REMARK   12  A    between atoms: _26  and  _29
REMARK   13  A    between atoms: _29  and  _30
REMARK   14  A    between atoms: _30  and  _31
REMARK   15  A    between atoms: _34  and  _36
REMARK   16  A    between atoms: _36  and  _37
REMARK   17  A    between atoms: _36  and  _39
REMARK   18  A    between atoms: _39  and  _40
REMARK   19  A    between atoms: _45  and  _46
REMARK   20  A    between atoms: _48  and  _50
REMARK   21  A    between atoms: _50  and  _51
REMARK   22  A    between atoms: _50  and  _53
REMARK   23  A    between atoms: _53  and  _54
REMARK   24  A    between atoms: _59  and  _61
REMARK   25  A    between atoms: _61  and  _62
REMARK   26  A    between atoms: _64  and  _66
REMARK   27  A    between atoms: _66  and  _67
REMARK   28  A    between atoms: _69  and  _71
REMARK   29  A    between atoms: _71  and  _72
REMARK   30  A    between atoms: _71  and  _74
REMARK   31  A    between atoms: _74  and  _75
REMARK   32  A    between atoms: _78  and  _80
REMARK   33  A    between atoms: _80  and  _81
REMARK   34  A    between atoms: _83  and  _85
REMARK   35  A    between atoms: _85  and  _86
REMARK   36  A    between atoms: _85  and  _88
REMARK   37  A    between atoms: _88  and  _89
REMARK   38  A    between atoms: _89  and  _90
REMARK   39  A    between atoms: _90  and  _91
REMARK   40  A    between atoms: _100  and  _102
REMARK   41  A    between atoms: _102  and  _103
REMARK   42  A    between atoms: _102  and  _105
REMARK   43  A    between atoms: _105  and  _106
REMARK   44  A    between atoms: _109  and  _111
REMARK   45  A    between atoms: _111  and  _112
REMARK   46  A    between atoms: _115  and  _117
REMARK   47  A    between atoms: _117  and  _118
REMARK   48  A    between atoms: _117  and  _120
REMARK   49  A    between atoms: _120  and  _121
REMARK   50  A    between atoms: _127  and  _129
REMARK   51  A    between atoms: _129  and  _130
REMARK   52  A    between atoms: _129  and  _132
REMARK   53  A    between atoms: _132  and  _133
REMARK   54  A    between atoms: _138  and  _139
REMARK   55  A    between atoms: _142  and  _143
REMARK   56  A    between atoms: _148  and  _150
REMARK   57  A    between atoms: _150  and  _151
REMARK   58  A    between atoms: _150  and  _153
REMARK   59  A    between atoms: _153  and  _154
REMARK   60  A    between atoms: _159  and  _161
REMARK   61  A    between atoms: _161  and  _162
REMARK   62  A    between atoms: _161  and  _164
REMARK   63  A    between atoms: _164  and  _165
REMARK   64  A    between atoms: _168  and  _170
REMARK   65  A    between atoms: _170  and  _171
REMARK   66  A    between atoms: _170  and  _173
REMARK   67  A    between atoms: _173  and  _174
REMARK   68  A    between atoms: _179  and  _181
REMARK   69  A    between atoms: _181  and  _182
REMARK   70  A    between atoms: _181  and  _184
REMARK   71  A    between atoms: _184  and  _185
REMARK   72  A    between atoms: _191  and  _193
REMARK   73  A    between atoms: _193  and  _194
REMARK   74  A    between atoms: _193  and  _196
REMARK   75  A    between atoms: _196  and  _197
REMARK   76  A    between atoms: _203  and  _205
REMARK   77  A    between atoms: _205  and  _206
REMARK   78  A    between atoms: _205  and  _208
REMARK   79  A    between atoms: _208  and  _209
REMARK   80  A    between atoms: _209  and  _210
REMARK   81  A    between atoms: _213  and  _215
REMARK   82  A    between atoms: _215  and  _216
REMARK   83  A    between atoms: _218  and  _220
REMARK   84  A    between atoms: _220  and  _221
REMARK   85  A    between atoms: _220  and  _223
REMARK   86  A    between atoms: _223  and  _224
REMARK   87  A    between atoms: _224  and  _225
REMARK   88  A    between atoms: _225  and  _226
REMARK   89  A    between atoms: _235  and  _237
REMARK   90  A    between atoms: _237  and  _238
REMARK   91  A    between atoms: _237  and  _240
REMARK   92  A    between atoms: _240  and  _241
REMARK   93  A    between atoms: _241  and  _242
REMARK   94  A    between atoms: _245  and  _247
REMARK   95  A    between atoms: _247  and  _248
REMARK   96  A    between atoms: _247  and  _250
REMARK   97  A    between atoms: _250  and  _251
REMARK   98  A    between atoms: _256  and  _258
REMARK   99  A    between atoms: _258  and  _259
REMARK  100  A    between atoms: _258  and  _261
REMARK  101  A    between atoms: _261  and  _262
REMARK  102  A    between atoms: _265  and  _267
REMARK  103  A    between atoms: _267  and  _268
REMARK  104  A    between atoms: _267  and  _270
REMARK  105  A    between atoms: _270  and  _271
REMARK  106  A    between atoms: _274  and  _276
REMARK  107  A    between atoms: _276  and  _277
REMARK  108  A    between atoms: _276  and  _279
REMARK  109  A    between atoms: _279  and  _280
REMARK  110  A    between atoms: _285  and  _287
REMARK  111  A    between atoms: _287  and  _288
REMARK  112  A    between atoms: _287  and  _290
REMARK  113  A    between atoms: _290  and  _291
REMARK  114  A    between atoms: _294  and  _296
REMARK  115  A    between atoms: _296  and  _297
REMARK  116  A    between atoms: _296  and  _299
REMARK  117  A    between atoms: _299  and  _300
REMARK  118  A    between atoms: _305  and  _307
REMARK  119  A    between atoms: _307  and  _308
REMARK  120  A    between atoms: _307  and  _310
REMARK  121  A    between atoms: _310  and  _311
REMARK  122  A    between atoms: _316  and  _318
REMARK  123  A    between atoms: _318  and  _319
REMARK  124  A    between atoms: _318  and  _321
REMARK  125  A    between atoms: _321  and  _322
REMARK  126  A    between atoms: _325  and  _327
REMARK  127  A    between atoms: _327  and  _328
REMARK  128  A    between atoms: _327  and  _330
REMARK  129  A    between atoms: _333  and  _335
REMARK  130  A    between atoms: _335  and  _336
REMARK  131  A    between atoms: _335  and  _338
REMARK  132  A    between atoms: _338  and  _339
REMARK  133  A    between atoms: _342  and  _344
REMARK  134  A    between atoms: _344  and  _345
REMARK  135  A    between atoms: _344  and  _347
REMARK  136  A    between atoms: _347  and  _348
REMARK  137  A    between atoms: _348  and  _349
REMARK  138  A    between atoms: _352  and  _354
REMARK  139  A    between atoms: _354  and  _355
REMARK  140  A    between atoms: _358  and  _360
REMARK  141  A    between atoms: _360  and  _361
REMARK  142  A    between atoms: _360  and  _363
REMARK  143  A    between atoms: _363  and  _364
REMARK  144  A    between atoms: _367  and  _369
REMARK  145  A    between atoms: _369  and  _370
REMARK  146  A    between atoms: _369  and  _372
REMARK  147  A    between atoms: _372  and  _373
REMARK  148  A    between atoms: _373  and  _374
REMARK  149  A    between atoms: _377  and  _379
REMARK  150  A    between atoms: _379  and  _380
REMARK  151  A    between atoms: _379  and  _382
REMARK  152  A    between atoms: _382  and  _383
REMARK  153  A    between atoms: _383  and  _384
REMARK  154  A    between atoms: _384  and  _385
REMARK  155  A    between atoms: _394  and  _396
REMARK  156  A    between atoms: _396  and  _397
REMARK  157  A    between atoms: _396  and  _399
REMARK  158  A    between atoms: _399  and  _400
REMARK  159  A    between atoms: _410  and  _412
REMARK  160  A    between atoms: _412  and  _413
REMARK  161  A    between atoms: _412  and  _415
REMARK  162  A    between atoms: _415  and  _416
REMARK  163  A    between atoms: _421  and  _423
REMARK  164  A    between atoms: _423  and  _424
REMARK  165  A    between atoms: _426  and  _428
REMARK  166  A    between atoms: _428  and  _429
REMARK  167  A    between atoms: _428  and  _431
REMARK  168  A    between atoms: _434  and  _436
REMARK  169  A    between atoms: _436  and  _437
REMARK  170  A    between atoms: _440  and  _442
REMARK  171  A    between atoms: _442  and  _443
REMARK  172  A    between atoms: _442  and  _445
REMARK  173  A    between atoms: _445  and  _446
REMARK  174  A    between atoms: _451  and  _453
REMARK  175  A    between atoms: _453  and  _454
REMARK  176  A    between atoms: _453  and  _456
REMARK  177  A    between atoms: _456  and  _457
REMARK  178  A    between atoms: _457  and  _458
REMARK  179  A    between atoms: _458  and  _459
REMARK  180  A    between atoms: _459  and  _460
REMARK  181  A    between atoms: _464  and  _466
REMARK  182  A    between atoms: _466  and  _467
REMARK  183  A    between atoms: _466  and  _469
REMARK  184  A    between atoms: _469  and  _470
REMARK  185  A    between atoms: _475  and  _477
REMARK  186  A    between atoms: _477  and  _478
REMARK  187  A    between atoms: _480  and  _482
REMARK  188  A    between atoms: _482  and  _483
REMARK  189  A    between atoms: _482  and  _485
REMARK  190  A    between atoms: _485  and  _486
REMARK  191  A    between atoms: _486  and  _487
REMARK  192  A    between atoms: _487  and  _488
REMARK  193  A    between atoms: _488  and  _489
REMARK  194  A    between atoms: _493  and  _495
REMARK  195  A    between atoms: _495  and  _496
REMARK  196  A    between atoms: _495  and  _498
REMARK  197  A    between atoms: _498  and  _499
REMARK  198  A    between atoms: _499  and  _500
REMARK  199  A    between atoms: _500  and  _501
REMARK  200  A    between atoms: _510  and  _512
REMARK  201  A    between atoms: _512  and  _513
REMARK  202  A    between atoms: _512  and  _515
REMARK  203  A    between atoms: _515  and  _516
REMARK  204  A    between atoms: _521  and  _522
REMARK  205  A    between atoms: _524  and  _526
REMARK  206  A    between atoms: _526  and  _527
REMARK  207  A    between atoms: _526  and  _529
REMARK  208  A    between atoms: _529  and  _530
REMARK  209  A    between atoms: _530  and  _531
REMARK  210  A    between atoms: _531  and  _532
REMARK  211  A    between atoms: _532  and  _533
REMARK  212  A    between atoms: _537  and  _539
REMARK  213  A    between atoms: _539  and  _540
REMARK  214  A    between atoms: _539  and  _542
REMARK  215  A    between atoms: _542  and  _543
REMARK  216  A    between atoms: _545  and  _547
REMARK  217  A    between atoms: _547  and  _548
REMARK  218  A    between atoms: _547  and  _550
REMARK  219  A    between atoms: _550  and  _551
REMARK  220  A    between atoms: _554  and  _556
REMARK  221  A    between atoms: _556  and  _557
REMARK  222  A    between atoms: _556  and  _559
REMARK  223  A    between atoms: _559  and  _560
REMARK  224  A    between atoms: _560  and  _561
REMARK  225  A    between atoms: _564  and  _566
REMARK  226  A    between atoms: _566  and  _567
REMARK  227  A    between atoms: _570  and  _572
REMARK  228  A    between atoms: _572  and  _573
REMARK  229  A    between atoms: _572  and  _575
REMARK  230  A    between atoms: _575  and  _576
REMARK  231  A    between atoms: _578  and  _580
REMARK  232  A    between atoms: _580  and  _581
REMARK  233  A    between atoms: _583  and  _585
REMARK  234  A    between atoms: _585  and  _586
REMARK  235  A    between atoms: _585  and  _588
REMARK  236  A    between atoms: _588  and  _589
REMARK  237  A    between atoms: _592  and  _594
REMARK  238  A    between atoms: _594  and  _595
REMARK  239  A    between atoms: _597  and  _599
REMARK  240  A    between atoms: _599  and  _600
REMARK  241  A    between atoms: _599  and  _602
REMARK  242  A    between atoms: _602  and  _603
REMARK  243  A    between atoms: _608  and  _610
REMARK  244  A    between atoms: _610  and  _611
REMARK  245  A    between atoms: _610  and  _613
REMARK  246  A    between atoms: _613  and  _614
REMARK  247  A    between atoms: _614  and  _615
REMARK  248  A    between atoms: _622  and  _623
REMARK  249  A    between atoms: _623  and  _639
REMARK  250  A    between atoms: _624  and  _626
REMARK  251  A    between atoms: _626  and  _627
REMARK  252  A    between atoms: _627  and  _628
REMARK  253  A    between atoms: _632  and  _634
REMARK  254  A    between atoms: _634  and  _635
REMARK  255  A    between atoms: _634  and  _642
REMARK  256  A    between atoms: _635  and  _636
REMARK  257  A    between atoms: _636  and  _637
REMARK  258  A    between atoms: _637  and  _638
REMARK  259  A    between atoms: _638  and  _639
REMARK  260  A    between atoms: _644  and  _646
REMARK  261  A    between atoms: _646  and  _647
REMARK  262  A    between atoms: _646  and  _649
REMARK  263  A    between atoms: _649  and  _650
REMARK  264  A    between atoms: _653  and  _655
REMARK  265  A    between atoms: _655  and  _656
REMARK  266  A    between atoms: _658  and  _660
REMARK  267  A    between atoms: _660  and  _661
REMARK  268  A    between atoms: _664  and  _666
REMARK  269  A    between atoms: _666  and  _667
REMARK  270  A    between atoms: _666  and  _669
REMARK  271  A    between atoms: _669  and  _670
REMARK  272  A    between atoms: _675  and  _676
REMARK                            x       y       z     vdW  Elec       q    Type
REMARK                         _______ _______ _______ _____ _____    ______ ____
ROOT
ATOM      1  O   HOH     1      47.046  29.674  31.299  0.00  0.00    +0.000 OA
ENDROOT
TORSDOF 0
REMARK  Name = ../refined-set-2016/3l7a/3l7a_pocket.pdb
REMARK  272 active torsions:
REMARK  status: ('A' for Active; 'I' for Inactive)
REMARK    1  A    between atoms: _1  and  _3
REMARK    2  A    between atoms: _3  and  _4
REMARK    3  A    between atoms: _3  and  _6
REMARK    4  A    between atoms: _6  and  _7
REMARK    5  A    between atoms: _12  and  _13
REMARK    6  A    between atoms: _15  and  _17
REMARK    7  A    between atoms: _17  and  _18
REMARK    8  A    between atoms: _17  and  _20
REMARK    9  A    between atoms: _20  and  _21
REMARK   10  A    between atoms: _24  and  _26
REMARK   11  A    between atoms: _26  and  _27
REMARK   12  A    between atoms: _26  and  _29
REMARK   13  A    between atoms: _29  and  _30
REMARK   14  A    between atoms: _30  and  _31
REMARK   15  A    between atoms: _34  and  _36
REMARK   16  A    between atoms: _36  and  _37
REMARK   17  A    between atoms: _36  and  _39
REMARK   18  A    between atoms: _39  and  _40
REMARK   19  A    between atoms: _45  and  _46
REMARK   20  A    between atoms: _48  and  _50
REMARK   21  A    between atoms: _50  and  _51
REMARK   22  A    between atoms: _50  and  _53
REMARK   23  A    between atoms: _53  and  _54
REMARK   24  A    between atoms: _59  and  _61
REMARK   25  A    between atoms: _61  and  _62
REMARK   26  A    between atoms: _64  and  _66
REMARK   27  A    between atoms: _66  and  _67
REMARK   28  A    between atoms: _69  and  _71
REMARK   29  A    between atoms: _71  and  _72
REMARK   30  A    between atoms: _71  and  _74
REMARK   31  A    between atoms: _74  and  _75
REMARK   32  A    between atoms: _78  and  _80
REMARK   33  A    between atoms: _80  and  _81
REMARK   34  A    between atoms: _83  and  _85
REMARK   35  A    between atoms: _85  and  _86
REMARK   36  A    between atoms: _85  and  _88
REMARK   37  A    between atoms: _88  and  _89
REMARK   38  A    between atoms: _89  and  _90
REMARK   39  A    between atoms: _90  and  _91
REMARK   40  A    between atoms: _100  and  _102
REMARK   41  A    between atoms: _102  and  _103
REMARK   42  A    between atoms: _102  and  _105
REMARK   43  A    between atoms: _105  and  _106
REMARK   44  A    between atoms: _109  and  _111
REMARK   45  A    between atoms: _111  and  _112
REMARK   46  A    between atoms: _115  and  _117
REMARK   47  A    between atoms: _117  and  _118
REMARK   48  A    between atoms: _117  and  _120
REMARK   49  A    between atoms: _120  and  _121
REMARK   50  A    between atoms: _127  and  _129
REMARK   51  A    between atoms: _129  and  _130
REMARK   52  A    between atoms: _129  and  _132
REMARK   53  A    between atoms: _132  and  _133
REMARK   54  A    between atoms: _138  and  _139
REMARK   55  A    between atoms: _142  and  _143
REMARK   56  A    between atoms: _148  and  _150
REMARK   57  A    between atoms: _150  and  _151
REMARK   58  A    between atoms: _150  and  _153
REMARK   59  A    between atoms: _153  and  _154
REMARK   60  A    between atoms: _159  and  _161
REMARK   61  A    between atoms: _161  and  _162
REMARK   62  A    between atoms: _161  and  _164
REMARK   63  A    between atoms: _164  and  _165
REMARK   64  A    between atoms: _168  and  _170
REMARK   65  A    between atoms: _170  and  _171
REMARK   66  A    between atoms: _170  and  _173
REMARK   67  A    between atoms: _173  and  _174
REMARK   68  A    between atoms: _179  and  _181
REMARK   69  A    between atoms: _181  and  _182
REMARK   70  A    between atoms: _181  and  _184
REMARK   71  A    between atoms: _184  and  _185
REMARK   72  A    between atoms: _191  and  _193
REMARK   73  A    between atoms: _193  and  _194
REMARK   74  A    between atoms: _193  and  _196
REMARK   75  A    between atoms: _196  and  _197
REMARK   76  A    between atoms: _203  and  _205
REMARK   77  A    between atoms: _205  and  _206
REMARK   78  A    between atoms: _205  and  _208
REMARK   79  A    between atoms: _208  and  _209
REMARK   80  A    between atoms: _209  and  _210
REMARK   81  A    between atoms: _213  and  _215
REMARK   82  A    between atoms: _215  and  _216
REMARK   83  A    between atoms: _218  and  _220
REMARK   84  A    between atoms: _220  and  _221
REMARK   85  A    between atoms: _220  and  _223
REMARK   86  A    between atoms: _223  and  _224
REMARK   87  A    between atoms: _224  and  _225
REMARK   88  A    between atoms: _225  and  _226
REMARK   89  A    between atoms: _235  and  _237
REMARK   90  A    between atoms: _237  and  _238
REMARK   91  A    between atoms: _237  and  _240
REMARK   92  A    between atoms: _240  and  _241
REMARK   93  A    between atoms: _241  and  _242
REMARK   94  A    between atoms: _245  and  _247
REMARK   95  A    between atoms: _247  and  _248
REMARK   96  A    between atoms: _247  and  _250
REMARK   97  A    between atoms: _250  and  _251
REMARK   98  A    between atoms: _256  and  _258
REMARK   99  A    between atoms: _258  and  _259
REMARK  100  A    between atoms: _258  and  _261
REMARK  101  A    between atoms: _261  and  _262
REMARK  102  A    between atoms: _265  and  _267
REMARK  103  A    between atoms: _267  and  _268
REMARK  104  A    between atoms: _267  and  _270
REMARK  105  A    between atoms: _270  and  _271
REMARK  106  A    between atoms: _274  and  _276
REMARK  107  A    between atoms: _276  and  _277
REMARK  108  A    between atoms: _276  and  _279
REMARK  109  A    between atoms: _279  and  _280
REMARK  110  A    between atoms: _285  and  _287
REMARK  111  A    between atoms: _287  and  _288
REMARK  112  A    between atoms: _287  and  _290
REMARK  113  A    between atoms: _290  and  _291
REMARK  114  A    between atoms: _294  and  _296
REMARK  115  A    between atoms: _296  and  _297
REMARK  116  A    between atoms: _296  and  _299
REMARK  117  A    between atoms: _299  and  _300
REMARK  118  A    between atoms: _305  and  _307
REMARK  119  A    between atoms: _307  and  _308
REMARK  120  A    between atoms: _307  and  _310
REMARK  121  A    between atoms: _310  and  _311
REMARK  122  A    between atoms: _316  and  _318
REMARK  123  A    between atoms: _318  and  _319
REMARK  124  A    between atoms: _318  and  _321
REMARK  125  A    between atoms: _321  and  _322
REMARK  126  A    between atoms: _325  and  _327
REMARK  127  A    between atoms: _327  and  _328
REMARK  128  A    between atoms: _327  and  _330
REMARK  129  A    between atoms: _333  and  _335
REMARK  130  A    between atoms: _335  and  _336
REMARK  131  A    between atoms: _335  and  _338
REMARK  132  A    between atoms: _338  and  _339
REMARK  133  A    between atoms: _342  and  _344
REMARK  134  A    between atoms: _344  and  _345
REMARK  135  A    between atoms: _344  and  _347
REMARK  136  A    between atoms: _347  and  _348
REMARK  137  A    between atoms: _348  and  _349
REMARK  138  A    between atoms: _352  and  _354
REMARK  139  A    between atoms: _354  and  _355
REMARK  140  A    between atoms: _358  and  _360
REMARK  141  A    between atoms: _360  and  _361
REMARK  142  A    between atoms: _360  and  _363
REMARK  143  A    between atoms: _363  and  _364
REMARK  144  A    between atoms: _367  and  _369
REMARK  145  A    between atoms: _369  and  _370
REMARK  146  A    between atoms: _369  and  _372
REMARK  147  A    between atoms: _372  and  _373
REMARK  148  A    between atoms: _373  and  _374
REMARK  149  A    between atoms: _377  and  _379
REMARK  150  A    between atoms: _379  and  _380
REMARK  151  A    between atoms: _379  and  _382
REMARK  152  A    between atoms: _382  and  _383
REMARK  153  A    between atoms: _383  and  _384
REMARK  154  A    between atoms: _384  and  _385
REMARK  155  A    between atoms: _394  and  _396
REMARK  156  A    between atoms: _396  and  _397
REMARK  157  A    between atoms: _396  and  _399
REMARK  158  A    between atoms: _399  and  _400
REMARK  159  A    between atoms: _410  and  _412
REMARK  160  A    between atoms: _412  and  _413
REMARK  161  A    between atoms: _412  and  _415
REMARK  162  A    between atoms: _415  and  _416
REMARK  163  A    between atoms: _421  and  _423
REMARK  164  A    between atoms: _423  and  _424
REMARK  165  A    between atoms: _426  and  _428
REMARK  166  A    between atoms: _428  and  _429
REMARK  167  A    between atoms: _428  and  _431
REMARK  168  A    between atoms: _434  and  _436
REMARK  169  A    between atoms: _436  and  _437
REMARK  170  A    between atoms: _440  and  _442
REMARK  171  A    between atoms: _442  and  _443
REMARK  172  A    between atoms: _442  and  _445
REMARK  173  A    between atoms: _445  and  _446
REMARK  174  A    between atoms: _451  and  _453
REMARK  175  A    between atoms: _453  and  _454
REMARK  176  A    between atoms: _453  and  _456
REMARK  177  A    between atoms: _456  and  _457
REMARK  178  A    between atoms: _457  and  _458
REMARK  179  A    between atoms: _458  and  _459
REMARK  180  A    between atoms: _459  and  _460
REMARK  181  A    between atoms: _464  and  _466
REMARK  182  A    between atoms: _466  and  _467
REMARK  183  A    between atoms: _466  and  _469
REMARK  184  A    between atoms: _469  and  _470
REMARK  185  A    between atoms: _475  and  _477
REMARK  186  A    between atoms: _477  and  _478
REMARK  187  A    between atoms: _480  and  _482
REMARK  188  A    between atoms: _482  and  _483
REMARK  189  A    between atoms: _482  and  _485
REMARK  190  A    between atoms: _485  and  _486
REMARK  191  A    between atoms: _486  and  _487
REMARK  192  A    between atoms: _487  and  _488
REMARK  193  A    between atoms: _488  and  _489
REMARK  194  A    between atoms: _493  and  _495
REMARK  195  A    between atoms: _495  and  _496
REMARK  196  A    between atoms: _495  and  _498
REMARK  197  A    between atoms: _498  and  _499
REMARK  198  A    between atoms: _499  and  _500
REMARK  199  A    between atoms: _500  and  _501
REMARK  200  A    between atoms: _510  and  _512
REMARK  201  A    between atoms: _512  and  _513
REMARK  202  A    between atoms: _512  and  _515
REMARK  203  A    between atoms: _515  and  _516
REMARK  204  A    between atoms: _521  and  _522
REMARK  205  A    between atoms: _524  and  _526
REMARK  206  A    between atoms: _526  and  _527
REMARK  207  A    between atoms: _526  and  _529
REMARK  208  A    between atoms: _529  and  _530
REMARK  209  A    between atoms: _530  and  _531
REMARK  210  A    between atoms: _531  and  _532
REMARK  211  A    between atoms: _532  and  _533
REMARK  212  A    between atoms: _537  and  _539
REMARK  213  A    between atoms: _539  and  _540
REMARK  214  A    between atoms: _539  and  _542
REMARK  215  A    between atoms: _542  and  _543
REMARK  216  A    between atoms: _545  and  _547
REMARK  217  A    between atoms: _547  and  _548
REMARK  218  A    between atoms: _547  and  _550
REMARK  219  A    between atoms: _550  and  _551
REMARK  220  A    between atoms: _554  and  _556
REMARK  221  A    between atoms: _556  and  _557
REMARK  222  A    between atoms: _556  and  _559
REMARK  223  A    between atoms: _559  and  _560
REMARK  224  A    between atoms: _560  and  _561
REMARK  225  A    between atoms: _564  and  _566
REMARK  226  A    between atoms: _566  and  _567
REMARK  227  A    between atoms: _570  and  _572
REMARK  228  A    between atoms: _572  and  _573
REMARK  229  A    between atoms: _572  and  _575
REMARK  230  A    between atoms: _575  and  _576
REMARK  231  A    between atoms: _578  and  _580
REMARK  232  A    between atoms: _580  and  _581
REMARK  233  A    between atoms: _583  and  _585
REMARK  234  A    between atoms: _585  and  _586
REMARK  235  A    between atoms: _585  and  _588
REMARK  236  A    between atoms: _588  and  _589
REMARK  237  A    between atoms: _592  and  _594
REMARK  238  A    between atoms: _594  and  _595
REMARK  239  A    between atoms: _597  and  _599
REMARK  240  A    between atoms: _599  and  _600
REMARK  241  A    between atoms: _599  and  _602
REMARK  242  A    between atoms: _602  and  _603
REMARK  243  A    between atoms: _608  and  _610
REMARK  244  A    between atoms: _610  and  _611
REMARK  245  A    between atoms: _610  and  _613
REMARK  246  A    between atoms: _613  and  _614
REMARK  247  A    between atoms: _614  and  _615
REMARK  248  A    between atoms: _622  and  _623
REMARK  249  A    between atoms: _623  and  _639
REMARK  250  A    between atoms: _624  and  _626
REMARK  251  A    between atoms: _626  and  _627
REMARK  252  A    between atoms: _627  and  _628
REMARK  253  A    between atoms: _632  and  _634
REMARK  254  A    between atoms: _634  and  _635
REMARK  255  A    between atoms: _634  and  _642
REMARK  256  A    between atoms: _635  and  _636
REMARK  257  A    between atoms: _636  and  _637
REMARK  258  A    between atoms: _637  and  _638
REMARK  259  A    between atoms: _638  and  _639
REMARK  260  A    between atoms: _644  and  _646
REMARK  261  A    between atoms: _646  and  _647
REMARK  262  A    between atoms: _646  and  _649
REMARK  263  A    between atoms: _649  and  _650
REMARK  264  A    between atoms: _653  and  _655
REMARK  265  A    between atoms: _655  and  _656
REMARK  266  A    between atoms: _658  and  _660
REMARK  267  A    between atoms: _660  and  _661
REMARK  268  A    between atoms: _664  and  _666
REMARK  269  A    between atoms: _666  and  _667
REMARK  270  A    between atoms: _666  and  _669
REMARK  271  A    between atoms: _669  and  _670
REMARK  272  A    between atoms: _675  and  _676
REMARK                            x       y       z     vdW  Elec       q    Type
REMARK                         _______ _______ _______ _____ _____    ______ ____
ROOT
ATOM      1  O   HOH     1      27.095  23.457  21.682  0.00  0.00    +0.000 OA
ENDROOT
TORSDOF 0
REMARK  Name = ../refined-set-2016/3l7a/3l7a_pocket.pdb
REMARK  272 active torsions:
REMARK  status: ('A' for Active; 'I' for Inactive)
REMARK    1  A    between atoms: _1  and  _3
REMARK    2  A    between atoms: _3  and  _4
REMARK    3  A    between atoms: _3  and  _6
REMARK    4  A    between atoms: _6  and  _7
REMARK    5  A    between atoms: _12  and  _13
REMARK    6  A    between atoms: _15  and  _17
REMARK    7  A    between atoms: _17  and  _18
REMARK    8  A    between atoms: _17  and  _20
REMARK    9  A    between atoms: _20  and  _21
REMARK   10  A    between atoms: _24  and  _26
REMARK   11  A    between atoms: _26  and  _27
REMARK   12  A    between atoms: _26  and  _29
REMARK   13  A    between atoms: _29  and  _30
REMARK   14  A    between atoms: _30  and  _31
REMARK   15  A    between atoms: _34  and  _36
REMARK   16  A    between atoms: _36  and  _37
REMARK   17  A    between atoms: _36  and  _39
REMARK   18  A    between atoms: _39  and  _40
REMARK   19  A    between atoms: _45  and  _46
REMARK   20  A    between atoms: _48  and  _50
REMARK   21  A    between atoms: _50  and  _51
REMARK   22  A    between atoms: _50  and  _53
REMARK   23  A    between atoms: _53  and  _54
REMARK   24  A    between atoms: _59  and  _61
REMARK   25  A    between atoms: _61  and  _62
REMARK   26  A    between atoms: _64  and  _66
REMARK   27  A    between atoms: _66  and  _67
REMARK   28  A    between atoms: _69  and  _71
REMARK   29  A    between atoms: _71  and  _72
REMARK   30  A    between atoms: _71  and  _74
REMARK   31  A    between atoms: _74  and  _75
REMARK   32  A    between atoms: _78  and  _80
REMARK   33  A    between atoms: _80  and  _81
REMARK   34  A    between atoms: _83  and  _85
REMARK   35  A    between atoms: _85  and  _86
REMARK   36  A    between atoms: _85  and  _88
REMARK   37  A    between atoms: _88  and  _89
REMARK   38  A    between atoms: _89  and  _90
REMARK   39  A    between atoms: _90  and  _91
REMARK   40  A    between atoms: _100  and  _102
REMARK   41  A    between atoms: _102  and  _103
REMARK   42  A    between atoms: _102  and  _105
REMARK   43  A    between atoms: _105  and  _106
REMARK   44  A    between atoms: _109  and  _111
REMARK   45  A    between atoms: _111  and  _112
REMARK   46  A    between atoms: _115  and  _117
REMARK   47  A    between atoms: _117  and  _118
REMARK   48  A    between atoms: _117  and  _120
REMARK   49  A    between atoms: _120  and  _121
REMARK   50  A    between atoms: _127  and  _129
REMARK   51  A    between atoms: _129  and  _130
REMARK   52  A    between atoms: _129  and  _132
REMARK   53  A    between atoms: _132  and  _133
REMARK   54  A    between atoms: _138  and  _139
REMARK   55  A    between atoms: _142  and  _143
REMARK   56  A    between atoms: _148  and  _150
REMARK   57  A    between atoms: _150  and  _151
REMARK   58  A    between atoms: _150  and  _153
REMARK   59  A    between atoms: _153  and  _154
REMARK   60  A    between atoms: _159  and  _161
REMARK   61  A    between atoms: _161  and  _162
REMARK   62  A    between atoms: _161  and  _164
REMARK   63  A    between atoms: _164  and  _165
REMARK   64  A    between atoms: _168  and  _170
REMARK   65  A    between atoms: _170  and  _171
REMARK   66  A    between atoms: _170  and  _173
REMARK   67  A    between atoms: _173  and  _174
REMARK   68  A    between atoms: _179  and  _181
REMARK   69  A    between atoms: _181  and  _182
REMARK   70  A    between atoms: _181  and  _184
REMARK   71  A    between atoms: _184  and  _185
REMARK   72  A    between atoms: _191  and  _193
REMARK   73  A    between atoms: _193  and  _194
REMARK   74  A    between atoms: _193  and  _196
REMARK   75  A    between atoms: _196  and  _197
REMARK   76  A    between atoms: _203  and  _205
REMARK   77  A    between atoms: _205  and  _206
REMARK   78  A    between atoms: _205  and  _208
REMARK   79  A    between atoms: _208  and  _209
REMARK   80  A    between atoms: _209  and  _210
REMARK   81  A    between atoms: _213  and  _215
REMARK   82  A    between atoms: _215  and  _216
REMARK   83  A    between atoms: _218  and  _220
REMARK   84  A    between atoms: _220  and  _221
REMARK   85  A    between atoms: _220  and  _223
REMARK   86  A    between atoms: _223  and  _224
REMARK   87  A    between atoms: _224  and  _225
REMARK   88  A    between atoms: _225  and  _226
REMARK   89  A    between atoms: _235  and  _237
REMARK   90  A    between atoms: _237  and  _238
REMARK   91  A    between atoms: _237  and  _240
REMARK   92  A    between atoms: _240  and  _241
REMARK   93  A    between atoms: _241  and  _242
REMARK   94  A    between atoms: _245  and  _247
REMARK   95  A    between atoms: _247  and  _248
REMARK   96  A    between atoms: _247  and  _250
REMARK   97  A    between atoms: _250  and  _251
REMARK   98  A    between atoms: _256  and  _258
REMARK   99  A    between atoms: _258  and  _259
REMARK  100  A    between atoms: _258  and  _261
REMARK  101  A    between atoms: _261  and  _262
REMARK  102  A    between atoms: _265  and  _267
REMARK  103  A    between atoms: _267  and  _268
REMARK  104  A    between atoms: _267  and  _270
REMARK  105  A    between atoms: _270  and  _271
REMARK  106  A    between atoms: _274  and  _276
REMARK  107  A    between atoms: _276  and  _277
REMARK  108  A    between atoms: _276  and  _279
REMARK  109  A    between atoms: _279  and  _280
REMARK  110  A    between atoms: _285  and  _287
REMARK  111  A    between atoms: _287  and  _288
REMARK  112  A    between atoms: _287  and  _290
REMARK  113  A    between atoms: _290  and  _291
REMARK  114  A    between atoms: _294  and  _296
REMARK  115  A    between atoms: _296  and  _297
REMARK  116  A    between atoms: _296  and  _299
REMARK  117  A    between atoms: _299  and  _300
REMARK  118  A    between atoms: _305  and  _307
REMARK  119  A    between atoms: _307  and  _308
REMARK  120  A    between atoms: _307  and  _310
REMARK  121  A    between atoms: _310  and  _311
REMARK  122  A    between atoms: _316  and  _318
REMARK  123  A    between atoms: _318  and  _319
REMARK  124  A    between atoms: _318  and  _321
REMARK  125  A    between atoms: _321  and  _322
REMARK  126  A    between atoms: _325  and  _327
REMARK  127  A    between atoms: _327  and  _328
REMARK  128  A    between atoms: _327  and  _330
REMARK  129  A    between atoms: _333  and  _335
REMARK  130  A    between atoms: _335  and  _336
REMARK  131  A    between atoms: _335  and  _338
REMARK  132  A    between atoms: _338  and  _339
REMARK  133  A    between atoms: _342  and  _344
REMARK  134  A    between atoms: _344  and  _345
REMARK  135  A    between atoms: _344  and  _347
REMARK  136  A    between atoms: _347  and  _348
REMARK  137  A    between atoms: _348  and  _349
REMARK  138  A    between atoms: _352  and  _354
REMARK  139  A    between atoms: _354  and  _355
REMARK  140  A    between atoms: _358  and  _360
REMARK  141  A    between atoms: _360  and  _361
REMARK  142  A    between atoms: _360  and  _363
REMARK  143  A    between atoms: _363  and  _364
REMARK  144  A    between atoms: _367  and  _369
REMARK  145  A    between atoms: _369  and  _370
REMARK  146  A    between atoms: _369  and  _372
REMARK  147  A    between atoms: _372  and  _373
REMARK  148  A    between atoms: _373  and  _374
REMARK  149  A    between atoms: _377  and  _379
REMARK  150  A    between atoms: _379  and  _380
REMARK  151  A    between atoms: _379  and  _382
REMARK  152  A    between atoms: _382  and  _383
REMARK  153  A    between atoms: _383  and  _384
REMARK  154  A    between atoms: _384  and  _385
REMARK  155  A    between atoms: _394  and  _396
REMARK  156  A    between atoms: _396  and  _397
REMARK  157  A    between atoms: _396  and  _399
REMARK  158  A    between atoms: _399  and  _400
REMARK  159  A    between atoms: _410  and  _412
REMARK  160  A    between atoms: _412  and  _413
REMARK  161  A    between atoms: _412  and  _415
REMARK  162  A    between atoms: _415  and  _416
REMARK  163  A    between atoms: _421  and  _423
REMARK  164  A    between atoms: _423  and  _424
REMARK  165  A    between atoms: _426  and  _428
REMARK  166  A    between atoms: _428  and  _429
REMARK  167  A    between atoms: _428  and  _431
REMARK  168  A    between atoms: _434  and  _436
REMARK  169  A    between atoms: _436  and  _437
REMARK  170  A    between atoms: _440  and  _442
REMARK  171  A    between atoms: _442  and  _443
REMARK  172  A    between atoms: _442  and  _445
REMARK  173  A    between atoms: _445  and  _446
REMARK  174  A    between atoms: _451  and  _453
REMARK  175  A    between atoms: _453  and  _454
REMARK  176  A    between atoms: _453  and  _456
REMARK  177  A    between atoms: _456  and  _457
REMARK  178  A    between atoms: _457  and  _458
REMARK  179  A    between atoms: _458  and  _459
REMARK  180  A    between atoms: _459  and  _460
REMARK  181  A    between atoms: _464  and  _466
REMARK  182  A    between atoms: _466  and  _467
REMARK  183  A    between atoms: _466  and  _469
REMARK  184  A    between atoms: _469  and  _470
REMARK  185  A    between atoms: _475  and  _477
REMARK  186  A    between atoms: _477  and  _478
REMARK  187  A    between atoms: _480  and  _482
REMARK  188  A    between atoms: _482  and  _483
REMARK  189  A    between atoms: _482  and  _485
REMARK  190  A    between atoms: _485  and  _486
REMARK  191  A    between atoms: _486  and  _487
REMARK  192  A    between atoms: _487  and  _488
REMARK  193  A    between atoms: _488  and  _489
REMARK  194  A    between atoms: _493  and  _495
REMARK  195  A    between atoms: _495  and  _496
REMARK  196  A    between atoms: _495  and  _498
REMARK  197  A    between atoms: _498  and  _499
REMARK  198  A    between atoms: _499  and  _500
REMARK  199  A    between atoms: _500  and  _501
REMARK  200  A    between atoms: _510  and  _512
REMARK  201  A    between atoms: _512  and  _513
REMARK  202  A    between atoms: _512  and  _515
REMARK  203  A    between atoms: _515  and  _516
REMARK  204  A    between atoms: _521  and  _522
REMARK  205  A    between atoms: _524  and  _526
REMARK  206  A    between atoms: _526  and  _527
REMARK  207  A    between atoms: _526  and  _529
REMARK  208  A    between atoms: _529  and  _530
REMARK  209  A    between atoms: _530  and  _531
REMARK  210  A    between atoms: _531  and  _532
REMARK  211  A    between atoms: _532  and  _533
REMARK  212  A    between atoms: _537  and  _539
REMARK  213  A    between atoms: _539  and  _540
REMARK  214  A    between atoms: _539  and  _542
REMARK  215  A    between atoms: _542  and  _543
REMARK  216  A    between atoms: _545  and  _547
REMARK  217  A    between atoms: _547  and  _548
REMARK  218  A    between atoms: _547  and  _550
REMARK  219  A    between atoms: _550  and  _551
REMARK  220  A    between atoms: _554  and  _556
REMARK  221  A    between atoms: _556  and  _557
REMARK  222  A    between atoms: _556  and  _559
REMARK  223  A    between atoms: _559  and  _560
REMARK  224  A    between atoms: _560  and  _561
REMARK  225  A    between atoms: _564  and  _566
REMARK  226  A    between atoms: _566  and  _567
REMARK  227  A    between atoms: _570  and  _572
REMARK  228  A    between atoms: _572  and  _573
REMARK  229  A    between atoms: _572  and  _575
REMARK  230  A    between atoms: _575  and  _576
REMARK  231  A    between atoms: _578  and  _580
REMARK  232  A    between atoms: _580  and  _581
REMARK  233  A    between atoms: _583  and  _585
REMARK  234  A    between atoms: _585  and  _586
REMARK  235  A    between atoms: _585  and  _588
REMARK  236  A    between atoms: _588  and  _589
REMARK  237  A    between atoms: _592  and  _594
REMARK  238  A    between atoms: _594  and  _595
REMARK  239  A    between atoms: _597  and  _599
REMARK  240  A    between atoms: _599  and  _600
REMARK  241  A    between atoms: _599  and  _602
REMARK  242  A    between atoms: _602  and  _603
REMARK  243  A    between atoms: _608  and  _610
REMARK  244  A    between atoms: _610  and  _611
REMARK  245  A    between atoms: _610  and  _613
REMARK  246  A    between atoms: _613  and  _614
REMARK  247  A    between atoms: _614  and  _615
REMARK  248  A    between atoms: _622  and  _623
REMARK  249  A    between atoms: _623  and  _639
REMARK  250  A    between atoms: _624  and  _626
REMARK  251  A    between atoms: _626  and  _627
REMARK  252  A    between atoms: _627  and  _628
REMARK  253  A    between atoms: _632  and  _634
REMARK  254  A    between atoms: _634  and  _635
REMARK  255  A    between atoms: _634  and  _642
REMARK  256  A    between atoms: _635  and  _636
REMARK  257  A    between atoms: _636  and  _637
REMARK  258  A    between atoms: _637  and  _638
REMARK  259  A    between atoms: _638  and  _639
REMARK  260  A    between atoms: _644  and  _646
REMARK  261  A    between atoms: _646  and  _647
REMARK  262  A    between atoms: _646  and  _649
REMARK  263  A    between atoms: _649  and  _650
REMARK  264  A    between atoms: _653  and  _655
REMARK  265  A    between atoms: _655  and  _656
REMARK  266  A    between atoms: _658  and  _660
REMARK  267  A    between atoms: _660  and  _661
REMARK  268  A    between atoms: _664  and  _666
REMARK  269  A    between atoms: _666  and  _667
REMARK  270  A    between atoms: _666  and  _669
REMARK  271  A    between atoms: _669  and  _670
REMARK  272  A    between atoms: _675  and  _676
REMARK                            x       y       z     vdW  Elec       q    Type
REMARK                         _______ _______ _______ _____ _____    ______ ____
ROOT
ATOM      1  O   HOH     1      35.478  12.747  31.152  0.00  0.00    +0.000 OA
ENDROOT
TORSDOF 0
REMARK  Name = ../refined-set-2016/3l7a/3l7a_pocket.pdb
REMARK  272 active torsions:
REMARK  status: ('A' for Active; 'I' for Inactive)
REMARK    1  A    between atoms: _1  and  _3
REMARK    2  A    between atoms: _3  and  _4
REMARK    3  A    between atoms: _3  and  _6
REMARK    4  A    between atoms: _6  and  _7
REMARK    5  A    between atoms: _12  and  _13
REMARK    6  A    between atoms: _15  and  _17
REMARK    7  A    between atoms: _17  and  _18
REMARK    8  A    between atoms: _17  and  _20
REMARK    9  A    between atoms: _20  and  _21
REMARK   10  A    between atoms: _24  and  _26
REMARK   11  A    between atoms: _26  and  _27
REMARK   12  A    between atoms: _26  and  _29
REMARK   13  A    between atoms: _29  and  _30
REMARK   14  A    between atoms: _30  and  _31
REMARK   15  A    between atoms: _34  and  _36
REMARK   16  A    between atoms: _36  and  _37
REMARK   17  A    between atoms: _36  and  _39
REMARK   18  A    between atoms: _39  and  _40
REMARK   19  A    between atoms: _45  and  _46
REMARK   20  A    between atoms: _48  and  _50
REMARK   21  A    between atoms: _50  and  _51
REMARK   22  A    between atoms: _50  and  _53
REMARK   23  A    between atoms: _53  and  _54
REMARK   24  A    between atoms: _59  and  _61
REMARK   25  A    between atoms: _61  and  _62
REMARK   26  A    between atoms: _64  and  _66
REMARK   27  A    between atoms: _66  and  _67
REMARK   28  A    between atoms: _69  and  _71
REMARK   29  A    between atoms: _71  and  _72
REMARK   30  A    between atoms: _71  and  _74
REMARK   31  A    between atoms: _74  and  _75
REMARK   32  A    between atoms: _78  and  _80
REMARK   33  A    between atoms: _80  and  _81
REMARK   34  A    between atoms: _83  and  _85
REMARK   35  A    between atoms: _85  and  _86
REMARK   36  A    between atoms: _85  and  _88
REMARK   37  A    between atoms: _88  and  _89
REMARK   38  A    between atoms: _89  and  _90
REMARK   39  A    between atoms: _90  and  _91
REMARK   40  A    between atoms: _100  and  _102
REMARK   41  A    between atoms: _102  and  _103
REMARK   42  A    between atoms: _102  and  _105
REMARK   43  A    between atoms: _105  and  _106
REMARK   44  A    between atoms: _109  and  _111
REMARK   45  A    between atoms: _111  and  _112
REMARK   46  A    between atoms: _115  and  _117
REMARK   47  A    between atoms: _117  and  _118
REMARK   48  A    between atoms: _117  and  _120
REMARK   49  A    between atoms: _120  and  _121
REMARK   50  A    between atoms: _127  and  _129
REMARK   51  A    between atoms: _129  and  _130
REMARK   52  A    between atoms: _129  and  _132
REMARK   53  A    between atoms: _132  and  _133
REMARK   54  A    between atoms: _138  and  _139
REMARK   55  A    between atoms: _142  and  _143
REMARK   56  A    between atoms: _148  and  _150
REMARK   57  A    between atoms: _150  and  _151
REMARK   58  A    between atoms: _150  and  _153
REMARK   59  A    between atoms: _153  and  _154
REMARK   60  A    between atoms: _159  and  _161
REMARK   61  A    between atoms: _161  and  _162
REMARK   62  A    between atoms: _161  and  _164
REMARK   63  A    between atoms: _164  and  _165
REMARK   64  A    between atoms: _168  and  _170
REMARK   65  A    between atoms: _170  and  _171
REMARK   66  A    between atoms: _170  and  _173
REMARK   67  A    between atoms: _173  and  _174
REMARK   68  A    between atoms: _179  and  _181
REMARK   69  A    between atoms: _181  and  _182
REMARK   70  A    between atoms: _181  and  _184
REMARK   71  A    between atoms: _184  and  _185
REMARK   72  A    between atoms: _191  and  _193
REMARK   73  A    between atoms: _193  and  _194
REMARK   74  A    between atoms: _193  and  _196
REMARK   75  A    between atoms: _196  and  _197
REMARK   76  A    between atoms: _203  and  _205
REMARK   77  A    between atoms: _205  and  _206
REMARK   78  A    between atoms: _205  and  _208
REMARK   79  A    between atoms: _208  and  _209
REMARK   80  A    between atoms: _209  and  _210
REMARK   81  A    between atoms: _213  and  _215
REMARK   82  A    between atoms: _215  and  _216
REMARK   83  A    between atoms: _218  and  _220
REMARK   84  A    between atoms: _220  and  _221
REMARK   85  A    between atoms: _220  and  _223
REMARK   86  A    between atoms: _223  and  _224
REMARK   87  A    between atoms: _224  and  _225
REMARK   88  A    between atoms: _225  and  _226
REMARK   89  A    between atoms: _235  and  _237
REMARK   90  A    between atoms: _237  and  _238
REMARK   91  A    between atoms: _237  and  _240
REMARK   92  A    between atoms: _240  and  _241
REMARK   93  A    between atoms: _241  and  _242
REMARK   94  A    between atoms: _245  and  _247
REMARK   95  A    between atoms: _247  and  _248
REMARK   96  A    between atoms: _247  and  _250
REMARK   97  A    between atoms: _250  and  _251
REMARK   98  A    between atoms: _256  and  _258
REMARK   99  A    between atoms: _258  and  _259
REMARK  100  A    between atoms: _258  and  _261
REMARK  101  A    between atoms: _261  and  _262
REMARK  102  A    between atoms: _265  and  _267
REMARK  103  A    between atoms: _267  and  _268
REMARK  104  A    between atoms: _267  and  _270
REMARK  105  A    between atoms: _270  and  _271
REMARK  106  A    between atoms: _274  and  _276
REMARK  107  A    between atoms: _276  and  _277
REMARK  108  A    between atoms: _276  and  _279
REMARK  109  A    between atoms: _279  and  _280
REMARK  110  A    between atoms: _285  and  _287
REMARK  111  A    between atoms: _287  and  _288
REMARK  112  A    between atoms: _287  and  _290
REMARK  113  A    between atoms: _290  and  _291
REMARK  114  A    between atoms: _294  and  _296
REMARK  115  A    between atoms: _296  and  _297
REMARK  116  A    between atoms: _296  and  _299
REMARK  117  A    between atoms: _299  and  _300
REMARK  118  A    between atoms: _305  and  _307
REMARK  119  A    between atoms: _307  and  _308
REMARK  120  A    between atoms: _307  and  _310
REMARK  121  A    between atoms: _310  and  _311
REMARK  122  A    between atoms: _316  and  _318
REMARK  123  A    between atoms: _318  and  _319
REMARK  124  A    between atoms: _318  and  _321
REMARK  125  A    between atoms: _321  and  _322
REMARK  126  A    between atoms: _325  and  _327
REMARK  127  A    between atoms: _327  and  _328
REMARK  128  A    between atoms: _327  and  _330
REMARK  129  A    between atoms: _333  and  _335
REMARK  130  A    between atoms: _335  and  _336
REMARK  131  A    between atoms: _335  and  _338
REMARK  132  A    between atoms: _338  and  _339
REMARK  133  A    between atoms: _342  and  _344
REMARK  134  A    between atoms: _344  and  _345
REMARK  135  A    between atoms: _344  and  _347
REMARK  136  A    between atoms: _347  and  _348
REMARK  137  A    between atoms: _348  and  _349
REMARK  138  A    between atoms: _352  and  _354
REMARK  139  A    between atoms: _354  and  _355
REMARK  140  A    between atoms: _358  and  _360
REMARK  141  A    between atoms: _360  and  _361
REMARK  142  A    between atoms: _360  and  _363
REMARK  143  A    between atoms: _363  and  _364
REMARK  144  A    between atoms: _367  and  _369
REMARK  145  A    between atoms: _369  and  _370
REMARK  146  A    between atoms: _369  and  _372
REMARK  147  A    between atoms: _372  and  _373
REMARK  148  A    between atoms: _373  and  _374
REMARK  149  A    between atoms: _377  and  _379
REMARK  150  A    between atoms: _379  and  _380
REMARK  151  A    between atoms: _379  and  _382
REMARK  152  A    between atoms: _382  and  _383
REMARK  153  A    between atoms: _383  and  _384
REMARK  154  A    between atoms: _384  and  _385
REMARK  155  A    between atoms: _394  and  _396
REMARK  156  A    between atoms: _396  and  _397
REMARK  157  A    between atoms: _396  and  _399
REMARK  158  A    between atoms: _399  and  _400
REMARK  159  A    between atoms: _410  and  _412
REMARK  160  A    between atoms: _412  and  _413
REMARK  161  A    between atoms: _412  and  _415
REMARK  162  A    between atoms: _415  and  _416
REMARK  163  A    between atoms: _421  and  _423
REMARK  164  A    between atoms: _423  and  _424
REMARK  165  A    between atoms: _426  and  _428
REMARK  166  A    between atoms: _428  and  _429
REMARK  167  A    between atoms: _428  and  _431
REMARK  168  A    between atoms: _434  and  _436
REMARK  169  A    between atoms: _436  and  _437
REMARK  170  A    between atoms: _440  and  _442
REMARK  171  A    between atoms: _442  and  _443
REMARK  172  A    between atoms: _442  and  _445
REMARK  173  A    between atoms: _445  and  _446
REMARK  174  A    between atoms: _451  and  _453
REMARK  175  A    between atoms: _453  and  _454
REMARK  176  A    between atoms: _453  and  _456
REMARK  177  A    between atoms: _456  and  _457
REMARK  178  A    between atoms: _457  and  _458
REMARK  179  A    between atoms: _458  and  _459
REMARK  180  A    between atoms: _459  and  _460
REMARK  181  A    between atoms: _464  and  _466
REMARK  182  A    between atoms: _466  and  _467
REMARK  183  A    between atoms: _466  and  _469
REMARK  184  A    between atoms: _469  and  _470
REMARK  185  A    between atoms: _475  and  _477
REMARK  186  A    between atoms: _477  and  _478
REMARK  187  A    between atoms: _480  and  _482
REMARK  188  A    between atoms: _482  and  _483
REMARK  189  A    between atoms: _482  and  _485
REMARK  190  A    between atoms: _485  and  _486
REMARK  191  A    between atoms: _486  and  _487
REMARK  192  A    between atoms: _487  and  _488
REMARK  193  A    between atoms: _488  and  _489
REMARK  194  A    between atoms: _493  and  _495
REMARK  195  A    between atoms: _495  and  _496
REMARK  196  A    between atoms: _495  and  _498
REMARK  197  A    between atoms: _498  and  _499
REMARK  198  A    between atoms: _499  and  _500
REMARK  199  A    between atoms: _500  and  _501
REMARK  200  A    between atoms: _510  and  _512
REMARK  201  A    between atoms: _512  and  _513
REMARK  202  A    between atoms: _512  and  _515
REMARK  203  A    between atoms: _515  and  _516
REMARK  204  A    between atoms: _521  and  _522
REMARK  205  A    between atoms: _524  and  _526
REMARK  206  A    between atoms: _526  and  _527
REMARK  207  A    between atoms: _526  and  _529
REMARK  208  A    between atoms: _529  and  _530
REMARK  209  A    between atoms: _530  and  _531
REMARK  210  A    between atoms: _531  and  _532
REMARK  211  A    between atoms: _532  and  _533
REMARK  212  A    between atoms: _537  and  _539
REMARK  213  A    between atoms: _539  and  _540
REMARK  214  A    between atoms: _539  and  _542
REMARK  215  A    between atoms: _542  and  _543
REMARK  216  A    between atoms: _545  and  _547
REMARK  217  A    between atoms: _547  and  _548
REMARK  218  A    between atoms: _547  and  _550
REMARK  219  A    between atoms: _550  and  _551
REMARK  220  A    between atoms: _554  and  _556
REMARK  221  A    between atoms: _556  and  _557
REMARK  222  A    between atoms: _556  and  _559
REMARK  223  A    between atoms: _559  and  _560
REMARK  224  A    between atoms: _560  and  _561
REMARK  225  A    between atoms: _564  and  _566
REMARK  226  A    between atoms: _566  and  _567
REMARK  227  A    between atoms: _570  and  _572
REMARK  228  A    between atoms: _572  and  _573
REMARK  229  A    between atoms: _572  and  _575
REMARK  230  A    between atoms: _575  and  _576
REMARK  231  A    between atoms: _578  and  _580
REMARK  232  A    between atoms: _580  and  _581
REMARK  233  A    between atoms: _583  and  _585
REMARK  234  A    between atoms: _585  and  _586
REMARK  235  A    between atoms: _585  and  _588
REMARK  236  A    between atoms: _588  and  _589
REMARK  237  A    between atoms: _592  and  _594
REMARK  238  A    between atoms: _594  and  _595
REMARK  239  A    between atoms: _597  and  _599
REMARK  240  A    between atoms: _599  and  _600
REMARK  241  A    between atoms: _599  and  _602
REMARK  242  A    between atoms: _602  and  _603
REMARK  243  A    between atoms: _608  and  _610
REMARK  244  A    between atoms: _610  and  _611
REMARK  245  A    between atoms: _610  and  _613
REMARK  246  A    between atoms: _613  and  _614
REMARK  247  A    between atoms: _614  and  _615
REMARK  248  A    between atoms: _622  and  _623
REMARK  249  A    between atoms: _623  and  _639
REMARK  250  A    between atoms: _624  and  _626
REMARK  251  A    between atoms: _626  and  _627
REMARK  252  A    between atoms: _627  and  _628
REMARK  253  A    between atoms: _632  and  _634
REMARK  254  A    between atoms: _634  and  _635
REMARK  255  A    between atoms: _634  and  _642
REMARK  256  A    between atoms: _635  and  _636
REMARK  257  A    between atoms: _636  and  _637
REMARK  258  A    between atoms: _637  and  _638
REMARK  259  A    between atoms: _638  and  _639
REMARK  260  A    between atoms: _644  and  _646
REMARK  261  A    between atoms: _646  and  _647
REMARK  262  A    between atoms: _646  and  _649
REMARK  263  A    between atoms: _649  and  _650
REMARK  264  A    between atoms: _653  and  _655
REMARK  265  A    between atoms: _655  and  _656
REMARK  266  A    between atoms: _658  and  _660
REMARK  267  A    between atoms: _660  and  _661
REMARK  268  A    between atoms: _664  and  _666
REMARK  269  A    between atoms: _666  and  _667
REMARK  270  A    between atoms: _666  and  _669
REMARK  271  A    between atoms: _669  and  _670
REMARK  272  A    between atoms: _675  and  _676
REMARK                            x       y       z     vdW  Elec       q    Type
REMARK                         _______ _______ _______ _____ _____    ______ ____
ROOT
ATOM      1  O   HOH     1      36.851  19.474  37.178  0.00  0.00    +0.000 OA
ENDROOT
TORSDOF 0
REMARK  Name = ../refined-set-2016/3l7a/3l7a_pocket.pdb
REMARK  272 active torsions:
REMARK  status: ('A' for Active; 'I' for Inactive)
REMARK    1  A    between atoms: _1  and  _3
REMARK    2  A    between atoms: _3  and  _4
REMARK    3  A    between atoms: _3  and  _6
REMARK    4  A    between atoms: _6  and  _7
REMARK    5  A    between atoms: _12  and  _13
REMARK    6  A    between atoms: _15  and  _17
REMARK    7  A    between atoms: _17  and  _18
REMARK    8  A    between atoms: _17  and  _20
REMARK    9  A    between atoms: _20  and  _21
REMARK   10  A    between atoms: _24  and  _26
REMARK   11  A    between atoms: _26  and  _27
REMARK   12  A    between atoms: _26  and  _29
REMARK   13  A    between atoms: _29  and  _30
REMARK   14  A    between atoms: _30  and  _31
REMARK   15  A    between atoms: _34  and  _36
REMARK   16  A    between atoms: _36  and  _37
REMARK   17  A    between atoms: _36  and  _39
REMARK   18  A    between atoms: _39  and  _40
REMARK   19  A    between atoms: _45  and  _46
REMARK   20  A    between atoms: _48  and  _50
REMARK   21  A    between atoms: _50  and  _51
REMARK   22  A    between atoms: _50  and  _53
REMARK   23  A    between atoms: _53  and  _54
REMARK   24  A    between atoms: _59  and  _61
REMARK   25  A    between atoms: _61  and  _62
REMARK   26  A    between atoms: _64  and  _66
REMARK   27  A    between atoms: _66  and  _67
REMARK   28  A    between atoms: _69  and  _71
REMARK   29  A    between atoms: _71  and  _72
REMARK   30  A    between atoms: _71  and  _74
REMARK   31  A    between atoms: _74  and  _75
REMARK   32  A    between atoms: _78  and  _80
REMARK   33  A    between atoms: _80  and  _81
REMARK   34  A    between atoms: _83  and  _85
REMARK   35  A    between atoms: _85  and  _86
REMARK   36  A    between atoms: _85  and  _88
REMARK   37  A    between atoms: _88  and  _89
REMARK   38  A    between atoms: _89  and  _90
REMARK   39  A    between atoms: _90  and  _91
REMARK   40  A    between atoms: _100  and  _102
REMARK   41  A    between atoms: _102  and  _103
REMARK   42  A    between atoms: _102  and  _105
REMARK   43  A    between atoms: _105  and  _106
REMARK   44  A    between atoms: _109  and  _111
REMARK   45  A    between atoms: _111  and  _112
REMARK   46  A    between atoms: _115  and  _117
REMARK   47  A    between atoms: _117  and  _118
REMARK   48  A    between atoms: _117  and  _120
REMARK   49  A    between atoms: _120  and  _121
REMARK   50  A    between atoms: _127  and  _129
REMARK   51  A    between atoms: _129  and  _130
REMARK   52  A    between atoms: _129  and  _132
REMARK   53  A    between atoms: _132  and  _133
REMARK   54  A    between atoms: _138  and  _139
REMARK   55  A    between atoms: _142  and  _143
REMARK   56  A    between atoms: _148  and  _150
REMARK   57  A    between atoms: _150  and  _151
REMARK   58  A    between atoms: _150  and  _153
REMARK   59  A    between atoms: _153  and  _154
REMARK   60  A    between atoms: _159  and  _161
REMARK   61  A    between atoms: _161  and  _162
REMARK   62  A    between atoms: _161  and  _164
REMARK   63  A    between atoms: _164  and  _165
REMARK   64  A    between atoms: _168  and  _170
REMARK   65  A    between atoms: _170  and  _171
REMARK   66  A    between atoms: _170  and  _173
REMARK   67  A    between atoms: _173  and  _174
REMARK   68  A    between atoms: _179  and  _181
REMARK   69  A    between atoms: _181  and  _182
REMARK   70  A    between atoms: _181  and  _184
REMARK   71  A    between atoms: _184  and  _185
REMARK   72  A    between atoms: _191  and  _193
REMARK   73  A    between atoms: _193  and  _194
REMARK   74  A    between atoms: _193  and  _196
REMARK   75  A    between atoms: _196  and  _197
REMARK   76  A    between atoms: _203  and  _205
REMARK   77  A    between atoms: _205  and  _206
REMARK   78  A    between atoms: _205  and  _208
REMARK   79  A    between atoms: _208  and  _209
REMARK   80  A    between atoms: _209  and  _210
REMARK   81  A    between atoms: _213  and  _215
REMARK   82  A    between atoms: _215  and  _216
REMARK   83  A    between atoms: _218  and  _220
REMARK   84  A    between atoms: _220  and  _221
REMARK   85  A    between atoms: _220  and  _223
REMARK   86  A    between atoms: _223  and  _224
REMARK   87  A    between atoms: _224  and  _225
REMARK   88  A    between atoms: _225  and  _226
REMARK   89  A    between atoms: _235  and  _237
REMARK   90  A    between atoms: _237  and  _238
REMARK   91  A    between atoms: _237  and  _240
REMARK   92  A    between atoms: _240  and  _241
REMARK   93  A    between atoms: _241  and  _242
REMARK   94  A    between atoms: _245  and  _247
REMARK   95  A    between atoms: _247  and  _248
REMARK   96  A    between atoms: _247  and  _250
REMARK   97  A    between atoms: _250  and  _251
REMARK   98  A    between atoms: _256  and  _258
REMARK   99  A    between atoms: _258  and  _259
REMARK  100  A    between atoms: _258  and  _261
REMARK  101  A    between atoms: _261  and  _262
REMARK  102  A    between atoms: _265  and  _267
REMARK  103  A    between atoms: _267  and  _268
REMARK  104  A    between atoms: _267  and  _270
REMARK  105  A    between atoms: _270  and  _271
REMARK  106  A    between atoms: _274  and  _276
REMARK  107  A    between atoms: _276  and  _277
REMARK  108  A    between atoms: _276  and  _279
REMARK  109  A    between atoms: _279  and  _280
REMARK  110  A    between atoms: _285  and  _287
REMARK  111  A    between atoms: _287  and  _288
REMARK  112  A    between atoms: _287  and  _290
REMARK  113  A    between atoms: _290  and  _291
REMARK  114  A    between atoms: _294  and  _296
REMARK  115  A    between atoms: _296  and  _297
REMARK  116  A    between atoms: _296  and  _299
REMARK  117  A    between atoms: _299  and  _300
REMARK  118  A    between atoms: _305  and  _307
REMARK  119  A    between atoms: _307  and  _308
REMARK  120  A    between atoms: _307  and  _310
REMARK  121  A    between atoms: _310  and  _311
REMARK  122  A    between atoms: _316  and  _318
REMARK  123  A    between atoms: _318  and  _319
REMARK  124  A    between atoms: _318  and  _321
REMARK  125  A    between atoms: _321  and  _322
REMARK  126  A    between atoms: _325  and  _327
REMARK  127  A    between atoms: _327  and  _328
REMARK  128  A    between atoms: _327  and  _330
REMARK  129  A    between atoms: _333  and  _335
REMARK  130  A    between atoms: _335  and  _336
REMARK  131  A    between atoms: _335  and  _338
REMARK  132  A    between atoms: _338  and  _339
REMARK  133  A    between atoms: _342  and  _344
REMARK  134  A    between atoms: _344  and  _345
REMARK  135  A    between atoms: _344  and  _347
REMARK  136  A    between atoms: _347  and  _348
REMARK  137  A    between atoms: _348  and  _349
REMARK  138  A    between atoms: _352  and  _354
REMARK  139  A    between atoms: _354  and  _355
REMARK  140  A    between atoms: _358  and  _360
REMARK  141  A    between atoms: _360  and  _361
REMARK  142  A    between atoms: _360  and  _363
REMARK  143  A    between atoms: _363  and  _364
REMARK  144  A    between atoms: _367  and  _369
REMARK  145  A    between atoms: _369  and  _370
REMARK  146  A    between atoms: _369  and  _372
REMARK  147  A    between atoms: _372  and  _373
REMARK  148  A    between atoms: _373  and  _374
REMARK  149  A    between atoms: _377  and  _379
REMARK  150  A    between atoms: _379  and  _380
REMARK  151  A    between atoms: _379  and  _382
REMARK  152  A    between atoms: _382  and  _383
REMARK  153  A    between atoms: _383  and  _384
REMARK  154  A    between atoms: _384  and  _385
REMARK  155  A    between atoms: _394  and  _396
REMARK  156  A    between atoms: _396  and  _397
REMARK  157  A    between atoms: _396  and  _399
REMARK  158  A    between atoms: _399  and  _400
REMARK  159  A    between atoms: _410  and  _412
REMARK  160  A    between atoms: _412  and  _413
REMARK  161  A    between atoms: _412  and  _415
REMARK  162  A    between atoms: _415  and  _416
REMARK  163  A    between atoms: _421  and  _423
REMARK  164  A    between atoms: _423  and  _424
REMARK  165  A    between atoms: _426  and  _428
REMARK  166  A    between atoms: _428  and  _429
REMARK  167  A    between atoms: _428  and  _431
REMARK  168  A    between atoms: _434  and  _436
REMARK  169  A    between atoms: _436  and  _437
REMARK  170  A    between atoms: _440  and  _442
REMARK  171  A    between atoms: _442  and  _443
REMARK  172  A    between atoms: _442  and  _445
REMARK  173  A    between atoms: _445  and  _446
REMARK  174  A    between atoms: _451  and  _453
REMARK  175  A    between atoms: _453  and  _454
REMARK  176  A    between atoms: _453  and  _456
REMARK  177  A    between atoms: _456  and  _457
REMARK  178  A    between atoms: _457  and  _458
REMARK  179  A    between atoms: _458  and  _459
REMARK  180  A    between atoms: _459  and  _460
REMARK  181  A    between atoms: _464  and  _466
REMARK  182  A    between atoms: _466  and  _467
REMARK  183  A    between atoms: _466  and  _469
REMARK  184  A    between atoms: _469  and  _470
REMARK  185  A    between atoms: _475  and  _477
REMARK  186  A    between atoms: _477  and  _478
REMARK  187  A    between atoms: _480  and  _482
REMARK  188  A    between atoms: _482  and  _483
REMARK  189  A    between atoms: _482  and  _485
REMARK  190  A    between atoms: _485  and  _486
REMARK  191  A    between atoms: _486  and  _487
REMARK  192  A    between atoms: _487  and  _488
REMARK  193  A    between atoms: _488  and  _489
REMARK  194  A    between atoms: _493  and  _495
REMARK  195  A    between atoms: _495  and  _496
REMARK  196  A    between atoms: _495  and  _498
REMARK  197  A    between atoms: _498  and  _499
REMARK  198  A    between atoms: _499  and  _500
REMARK  199  A    between atoms: _500  and  _501
REMARK  200  A    between atoms: _510  and  _512
REMARK  201  A    between atoms: _512  and  _513
REMARK  202  A    between atoms: _512  and  _515
REMARK  203  A    between atoms: _515  and  _516
REMARK  204  A    between atoms: _521  and  _522
REMARK  205  A    between atoms: _524  and  _526
REMARK  206  A    between atoms: _526  and  _527
REMARK  207  A    between atoms: _526  and  _529
REMARK  208  A    between atoms: _529  and  _530
REMARK  209  A    between atoms: _530  and  _531
REMARK  210  A    between atoms: _531  and  _532
REMARK  211  A    between atoms: _532  and  _533
REMARK  212  A    between atoms: _537  and  _539
REMARK  213  A    between atoms: _539  and  _540
REMARK  214  A    between atoms: _539  and  _542
REMARK  215  A    between atoms: _542  and  _543
REMARK  216  A    between atoms: _545  and  _547
REMARK  217  A    between atoms: _547  and  _548
REMARK  218  A    between atoms: _547  and  _550
REMARK  219  A    between atoms: _550  and  _551
REMARK  220  A    between atoms: _554  and  _556
REMARK  221  A    between atoms: _556  and  _557
REMARK  222  A    between atoms: _556  and  _559
REMARK  223  A    between atoms: _559  and  _560
REMARK  224  A    between atoms: _560  and  _561
REMARK  225  A    between atoms: _564  and  _566
REMARK  226  A    between atoms: _566  and  _567
REMARK  227  A    between atoms: _570  and  _572
REMARK  228  A    between atoms: _572  and  _573
REMARK  229  A    between atoms: _572  and  _575
REMARK  230  A    between atoms: _575  and  _576
REMARK  231  A    between atoms: _578  and  _580
REMARK  232  A    between atoms: _580  and  _581
REMARK  233  A    between atoms: _583  and  _585
REMARK  234  A    between atoms: _585  and  _586
REMARK  235  A    between atoms: _585  and  _588
REMARK  236  A    between atoms: _588  and  _589
REMARK  237  A    between atoms: _592  and  _594
REMARK  238  A    between atoms: _594  and  _595
REMARK  239  A    between atoms: _597  and  _599
REMARK  240  A    between atoms: _599  and  _600
REMARK  241  A    between atoms: _599  and  _602
REMARK  242  A    between atoms: _602  and  _603
REMARK  243  A    between atoms: _608  and  _610
REMARK  244  A    between atoms: _610  and  _611
REMARK  245  A    between atoms: _610  and  _613
REMARK  246  A    between atoms: _613  and  _614
REMARK  247  A    between atoms: _614  and  _615
REMARK  248  A    between atoms: _622  and  _623
REMARK  249  A    between atoms: _623  and  _639
REMARK  250  A    between atoms: _624  and  _626
REMARK  251  A    between atoms: _626  and  _627
REMARK  252  A    between atoms: _627  and  _628
REMARK  253  A    between atoms: _632  and  _634
REMARK  254  A    between atoms: _634  and  _635
REMARK  255  A    between atoms: _634  and  _642
REMARK  256  A    between atoms: _635  and  _636
REMARK  257  A    between atoms: _636  and  _637
REMARK  258  A    between atoms: _637  and  _638
REMARK  259  A    between atoms: _638  and  _639
REMARK  260  A    between atoms: _644  and  _646
REMARK  261  A    between atoms: _646  and  _647
REMARK  262  A    between atoms: _646  and  _649
REMARK  263  A    between atoms: _649  and  _650
REMARK  264  A    between atoms: _653  and  _655
REMARK  265  A    between atoms: _655  and  _656
REMARK  266  A    between atoms: _658  and  _660
REMARK  267  A    between atoms: _660  and  _661
REMARK  268  A    between atoms: _664  and  _666
REMARK  269  A    between atoms: _666  and  _667
REMARK  270  A    between atoms: _666  and  _669
REMARK  271  A    between atoms: _669  and  _670
REMARK  272  A    between atoms: _675  and  _676
REMARK                            x       y       z     vdW  Elec       q    Type
REMARK                         _______ _______ _______ _____ _____    ______ ____
ROOT
ATOM      1  O   HOH     1      31.252  23.833  33.430  0.00  0.00    +0.000 OA
ENDROOT
TORSDOF 0
REMARK  Name = ../refined-set-2016/3l7a/3l7a_pocket.pdb
REMARK  272 active torsions:
REMARK  status: ('A' for Active; 'I' for Inactive)
REMARK    1  A    between atoms: _1  and  _3
REMARK    2  A    between atoms: _3  and  _4
REMARK    3  A    between atoms: _3  and  _6
REMARK    4  A    between atoms: _6  and  _7
REMARK    5  A    between atoms: _12  and  _13
REMARK    6  A    between atoms: _15  and  _17
REMARK    7  A    between atoms: _17  and  _18
REMARK    8  A    between atoms: _17  and  _20
REMARK    9  A    between atoms: _20  and  _21
REMARK   10  A    between atoms: _24  and  _26
REMARK   11  A    between atoms: _26  and  _27
REMARK   12  A    between atoms: _26  and  _29
REMARK   13  A    between atoms: _29  and  _30
REMARK   14  A    between atoms: _30  and  _31
REMARK   15  A    between atoms: _34  and  _36
REMARK   16  A    between atoms: _36  and  _37
REMARK   17  A    between atoms: _36  and  _39
REMARK   18  A    between atoms: _39  and  _40
REMARK   19  A    between atoms: _45  and  _46
REMARK   20  A    between atoms: _48  and  _50
REMARK   21  A    between atoms: _50  and  _51
REMARK   22  A    between atoms: _50  and  _53
REMARK   23  A    between atoms: _53  and  _54
REMARK   24  A    between atoms: _59  and  _61
REMARK   25  A    between atoms: _61  and  _62
REMARK   26  A    between atoms: _64  and  _66
REMARK   27  A    between atoms: _66  and  _67
REMARK   28  A    between atoms: _69  and  _71
REMARK   29  A    between atoms: _71  and  _72
REMARK   30  A    between atoms: _71  and  _74
REMARK   31  A    between atoms: _74  and  _75
REMARK   32  A    between atoms: _78  and  _80
REMARK   33  A    between atoms: _80  and  _81
REMARK   34  A    between atoms: _83  and  _85
REMARK   35  A    between atoms: _85  and  _86
REMARK   36  A    between atoms: _85  and  _88
REMARK   37  A    between atoms: _88  and  _89
REMARK   38  A    between atoms: _89  and  _90
REMARK   39  A    between atoms: _90  and  _91
REMARK   40  A    between atoms: _100  and  _102
REMARK   41  A    between atoms: _102  and  _103
REMARK   42  A    between atoms: _102  and  _105
REMARK   43  A    between atoms: _105  and  _106
REMARK   44  A    between atoms: _109  and  _111
REMARK   45  A    between atoms: _111  and  _112
REMARK   46  A    between atoms: _115  and  _117
REMARK   47  A    between atoms: _117  and  _118
REMARK   48  A    between atoms: _117  and  _120
REMARK   49  A    between atoms: _120  and  _121
REMARK   50  A    between atoms: _127  and  _129
REMARK   51  A    between atoms: _129  and  _130
REMARK   52  A    between atoms: _129  and  _132
REMARK   53  A    between atoms: _132  and  _133
REMARK   54  A    between atoms: _138  and  _139
REMARK   55  A    between atoms: _142  and  _143
REMARK   56  A    between atoms: _148  and  _150
REMARK   57  A    between atoms: _150  and  _151
REMARK   58  A    between atoms: _150  and  _153
REMARK   59  A    between atoms: _153  and  _154
REMARK   60  A    between atoms: _159  and  _161
REMARK   61  A    between atoms: _161  and  _162
REMARK   62  A    between atoms: _161  and  _164
REMARK   63  A    between atoms: _164  and  _165
REMARK   64  A    between atoms: _168  and  _170
REMARK   65  A    between atoms: _170  and  _171
REMARK   66  A    between atoms: _170  and  _173
REMARK   67  A    between atoms: _173  and  _174
REMARK   68  A    between atoms: _179  and  _181
REMARK   69  A    between atoms: _181  and  _182
REMARK   70  A    between atoms: _181  and  _184
REMARK   71  A    between atoms: _184  and  _185
REMARK   72  A    between atoms: _191  and  _193
REMARK   73  A    between atoms: _193  and  _194
REMARK   74  A    between atoms: _193  and  _196
REMARK   75  A    between atoms: _196  and  _197
REMARK   76  A    between atoms: _203  and  _205
REMARK   77  A    between atoms: _205  and  _206
REMARK   78  A    between atoms: _205  and  _208
REMARK   79  A    between atoms: _208  and  _209
REMARK   80  A    between atoms: _209  and  _210
REMARK   81  A    between atoms: _213  and  _215
REMARK   82  A    between atoms: _215  and  _216
REMARK   83  A    between atoms: _218  and  _220
REMARK   84  A    between atoms: _220  and  _221
REMARK   85  A    between atoms: _220  and  _223
REMARK   86  A    between atoms: _223  and  _224
REMARK   87  A    between atoms: _224  and  _225
REMARK   88  A    between atoms: _225  and  _226
REMARK   89  A    between atoms: _235  and  _237
REMARK   90  A    between atoms: _237  and  _238
REMARK   91  A    between atoms: _237  and  _240
REMARK   92  A    between atoms: _240  and  _241
REMARK   93  A    between atoms: _241  and  _242
REMARK   94  A    between atoms: _245  and  _247
REMARK   95  A    between atoms: _247  and  _248
REMARK   96  A    between atoms: _247  and  _250
REMARK   97  A    between atoms: _250  and  _251
REMARK   98  A    between atoms: _256  and  _258
REMARK   99  A    between atoms: _258  and  _259
REMARK  100  A    between atoms: _258  and  _261
REMARK  101  A    between atoms: _261  and  _262
REMARK  102  A    between atoms: _265  and  _267
REMARK  103  A    between atoms: _267  and  _268
REMARK  104  A    between atoms: _267  and  _270
REMARK  105  A    between atoms: _270  and  _271
REMARK  106  A    between atoms: _274  and  _276
REMARK  107  A    between atoms: _276  and  _277
REMARK  108  A    between atoms: _276  and  _279
REMARK  109  A    between atoms: _279  and  _280
REMARK  110  A    between atoms: _285  and  _287
REMARK  111  A    between atoms: _287  and  _288
REMARK  112  A    between atoms: _287  and  _290
REMARK  113  A    between atoms: _290  and  _291
REMARK  114  A    between atoms: _294  and  _296
REMARK  115  A    between atoms: _296  and  _297
REMARK  116  A    between atoms: _296  and  _299
REMARK  117  A    between atoms: _299  and  _300
REMARK  118  A    between atoms: _305  and  _307
REMARK  119  A    between atoms: _307  and  _308
REMARK  120  A    between atoms: _307  and  _310
REMARK  121  A    between atoms: _310  and  _311
REMARK  122  A    between atoms: _316  and  _318
REMARK  123  A    between atoms: _318  and  _319
REMARK  124  A    between atoms: _318  and  _321
REMARK  125  A    between atoms: _321  and  _322
REMARK  126  A    between atoms: _325  and  _327
REMARK  127  A    between atoms: _327  and  _328
REMARK  128  A    between atoms: _327  and  _330
REMARK  129  A    between atoms: _333  and  _335
REMARK  130  A    between atoms: _335  and  _336
REMARK  131  A    between atoms: _335  and  _338
REMARK  132  A    between atoms: _338  and  _339
REMARK  133  A    between atoms: _342  and  _344
REMARK  134  A    between atoms: _344  and  _345
REMARK  135  A    between atoms: _344  and  _347
REMARK  136  A    between atoms: _347  and  _348
REMARK  137  A    between atoms: _348  and  _349
REMARK  138  A    between atoms: _352  and  _354
REMARK  139  A    between atoms: _354  and  _355
REMARK  140  A    between atoms: _358  and  _360
REMARK  141  A    between atoms: _360  and  _361
REMARK  142  A    between atoms: _360  and  _363
REMARK  143  A    between atoms: _363  and  _364
REMARK  144  A    between atoms: _367  and  _369
REMARK  145  A    between atoms: _369  and  _370
REMARK  146  A    between atoms: _369  and  _372
REMARK  147  A    between atoms: _372  and  _373
REMARK  148  A    between atoms: _373  and  _374
REMARK  149  A    between atoms: _377  and  _379
REMARK  150  A    between atoms: _379  and  _380
REMARK  151  A    between atoms: _379  and  _382
REMARK  152  A    between atoms: _382  and  _383
REMARK  153  A    between atoms: _383  and  _384
REMARK  154  A    between atoms: _384  and  _385
REMARK  155  A    between atoms: _394  and  _396
REMARK  156  A    between atoms: _396  and  _397
REMARK  157  A    between atoms: _396  and  _399
REMARK  158  A    between atoms: _399  and  _400
REMARK  159  A    between atoms: _410  and  _412
REMARK  160  A    between atoms: _412  and  _413
REMARK  161  A    between atoms: _412  and  _415
REMARK  162  A    between atoms: _415  and  _416
REMARK  163  A    between atoms: _421  and  _423
REMARK  164  A    between atoms: _423  and  _424
REMARK  165  A    between atoms: _426  and  _428
REMARK  166  A    between atoms: _428  and  _429
REMARK  167  A    between atoms: _428  and  _431
REMARK  168  A    between atoms: _434  and  _436
REMARK  169  A    between atoms: _436  and  _437
REMARK  170  A    between atoms: _440  and  _442
REMARK  171  A    between atoms: _442  and  _443
REMARK  172  A    between atoms: _442  and  _445
REMARK  173  A    between atoms: _445  and  _446
REMARK  174  A    between atoms: _451  and  _453
REMARK  175  A    between atoms: _453  and  _454
REMARK  176  A    between atoms: _453  and  _456
REMARK  177  A    between atoms: _456  and  _457
REMARK  178  A    between atoms: _457  and  _458
REMARK  179  A    between atoms: _458  and  _459
REMARK  180  A    between atoms: _459  and  _460
REMARK  181  A    between atoms: _464  and  _466
REMARK  182  A    between atoms: _466  and  _467
REMARK  183  A    between atoms: _466  and  _469
REMARK  184  A    between atoms: _469  and  _470
REMARK  185  A    between atoms: _475  and  _477
REMARK  186  A    between atoms: _477  and  _478
REMARK  187  A    between atoms: _480  and  _482
REMARK  188  A    between atoms: _482  and  _483
REMARK  189  A    between atoms: _482  and  _485
REMARK  190  A    between atoms: _485  and  _486
REMARK  191  A    between atoms: _486  and  _487
REMARK  192  A    between atoms: _487  and  _488
REMARK  193  A    between atoms: _488  and  _489
REMARK  194  A    between atoms: _493  and  _495
REMARK  195  A    between atoms: _495  and  _496
REMARK  196  A    between atoms: _495  and  _498
REMARK  197  A    between atoms: _498  and  _499
REMARK  198  A    between atoms: _499  and  _500
REMARK  199  A    between atoms: _500  and  _501
REMARK  200  A    between atoms: _510  and  _512
REMARK  201  A    between atoms: _512  and  _513
REMARK  202  A    between atoms: _512  and  _515
REMARK  203  A    between atoms: _515  and  _516
REMARK  204  A    between atoms: _521  and  _522
REMARK  205  A    between atoms: _524  and  _526
REMARK  206  A    between atoms: _526  and  _527
REMARK  207  A    between atoms: _526  and  _529
REMARK  208  A    between atoms: _529  and  _530
REMARK  209  A    between atoms: _530  and  _531
REMARK  210  A    between atoms: _531  and  _532
REMARK  211  A    between atoms: _532  and  _533
REMARK  212  A    between atoms: _537  and  _539
REMARK  213  A    between atoms: _539  and  _540
REMARK  214  A    between atoms: _539  and  _542
REMARK  215  A    between atoms: _542  and  _543
REMARK  216  A    between atoms: _545  and  _547
REMARK  217  A    between atoms: _547  and  _548
REMARK  218  A    between atoms: _547  and  _550
REMARK  219  A    between atoms: _550  and  _551
REMARK  220  A    between atoms: _554  and  _556
REMARK  221  A    between atoms: _556  and  _557
REMARK  222  A    between atoms: _556  and  _559
REMARK  223  A    between atoms: _559  and  _560
REMARK  224  A    between atoms: _560  and  _561
REMARK  225  A    between atoms: _564  and  _566
REMARK  226  A    between atoms: _566  and  _567
REMARK  227  A    between atoms: _570  and  _572
REMARK  228  A    between atoms: _572  and  _573
REMARK  229  A    between atoms: _572  and  _575
REMARK  230  A    between atoms: _575  and  _576
REMARK  231  A    between atoms: _578  and  _580
REMARK  232  A    between atoms: _580  and  _581
REMARK  233  A    between atoms: _583  and  _585
REMARK  234  A    between atoms: _585  and  _586
REMARK  235  A    between atoms: _585  and  _588
REMARK  236  A    between atoms: _588  and  _589
REMARK  237  A    between atoms: _592  and  _594
REMARK  238  A    between atoms: _594  and  _595
REMARK  239  A    between atoms: _597  and  _599
REMARK  240  A    between atoms: _599  and  _600
REMARK  241  A    between atoms: _599  and  _602
REMARK  242  A    between atoms: _602  and  _603
REMARK  243  A    between atoms: _608  and  _610
REMARK  244  A    between atoms: _610  and  _611
REMARK  245  A    between atoms: _610  and  _613
REMARK  246  A    between atoms: _613  and  _614
REMARK  247  A    between atoms: _614  and  _615
REMARK  248  A    between atoms: _622  and  _623
REMARK  249  A    between atoms: _623  and  _639
REMARK  250  A    between atoms: _624  and  _626
REMARK  251  A    between atoms: _626  and  _627
REMARK  252  A    between atoms: _627  and  _628
REMARK  253  A    between atoms: _632  and  _634
REMARK  254  A    between atoms: _634  and  _635
REMARK  255  A    between atoms: _634  and  _642
REMARK  256  A    between atoms: _635  and  _636
REMARK  257  A    between atoms: _636  and  _637
REMARK  258  A    between atoms: _637  and  _638
REMARK  259  A    between atoms: _638  and  _639
REMARK  260  A    between atoms: _644  and  _646
REMARK  261  A    between atoms: _646  and  _647
REMARK  262  A    between atoms: _646  and  _649
REMARK  263  A    between atoms: _649  and  _650
REMARK  264  A    between atoms: _653  and  _655
REMARK  265  A    between atoms: _655  and  _656
REMARK  266  A    between atoms: _658  and  _660
REMARK  267  A    between atoms: _660  and  _661
REMARK  268  A    between atoms: _664  and  _666
REMARK  269  A    between atoms: _666  and  _667
REMARK  270  A    between atoms: _666  and  _669
REMARK  271  A    between atoms: _669  and  _670
REMARK  272  A    between atoms: _675  and  _676
REMARK                            x       y       z     vdW  Elec       q    Type
REMARK                         _______ _______ _______ _____ _____    ______ ____
ROOT
ATOM      1  O   HOH     1      38.961  23.889  22.322  0.00  0.00    +0.000 OA
ENDROOT
TORSDOF 0
REMARK  Name = ../refined-set-2016/3l7a/3l7a_pocket.pdb
REMARK  272 active torsions:
REMARK  status: ('A' for Active; 'I' for Inactive)
REMARK    1  A    between atoms: _1  and  _3
REMARK    2  A    between atoms: _3  and  _4
REMARK    3  A    between atoms: _3  and  _6
REMARK    4  A    between atoms: _6  and  _7
REMARK    5  A    between atoms: _12  and  _13
REMARK    6  A    between atoms: _15  and  _17
REMARK    7  A    between atoms: _17  and  _18
REMARK    8  A    between atoms: _17  and  _20
REMARK    9  A    between atoms: _20  and  _21
REMARK   10  A    between atoms: _24  and  _26
REMARK   11  A    between atoms: _26  and  _27
REMARK   12  A    between atoms: _26  and  _29
REMARK   13  A    between atoms: _29  and  _30
REMARK   14  A    between atoms: _30  and  _31
REMARK   15  A    between atoms: _34  and  _36
REMARK   16  A    between atoms: _36  and  _37
REMARK   17  A    between atoms: _36  and  _39
REMARK   18  A    between atoms: _39  and  _40
REMARK   19  A    between atoms: _45  and  _46
REMARK   20  A    between atoms: _48  and  _50
REMARK   21  A    between atoms: _50  and  _51
REMARK   22  A    between atoms: _50  and  _53
REMARK   23  A    between atoms: _53  and  _54
REMARK   24  A    between atoms: _59  and  _61
REMARK   25  A    between atoms: _61  and  _62
REMARK   26  A    between atoms: _64  and  _66
REMARK   27  A    between atoms: _66  and  _67
REMARK   28  A    between atoms: _69  and  _71
REMARK   29  A    between atoms: _71  and  _72
REMARK   30  A    between atoms: _71  and  _74
REMARK   31  A    between atoms: _74  and  _75
REMARK   32  A    between atoms: _78  and  _80
REMARK   33  A    between atoms: _80  and  _81
REMARK   34  A    between atoms: _83  and  _85
REMARK   35  A    between atoms: _85  and  _86
REMARK   36  A    between atoms: _85  and  _88
REMARK   37  A    between atoms: _88  and  _89
REMARK   38  A    between atoms: _89  and  _90
REMARK   39  A    between atoms: _90  and  _91
REMARK   40  A    between atoms: _100  and  _102
REMARK   41  A    between atoms: _102  and  _103
REMARK   42  A    between atoms: _102  and  _105
REMARK   43  A    between atoms: _105  and  _106
REMARK   44  A    between atoms: _109  and  _111
REMARK   45  A    between atoms: _111  and  _112
REMARK   46  A    between atoms: _115  and  _117
REMARK   47  A    between atoms: _117  and  _118
REMARK   48  A    between atoms: _117  and  _120
REMARK   49  A    between atoms: _120  and  _121
REMARK   50  A    between atoms: _127  and  _129
REMARK   51  A    between atoms: _129  and  _130
REMARK   52  A    between atoms: _129  and  _132
REMARK   53  A    between atoms: _132  and  _133
REMARK   54  A    between atoms: _138  and  _139
REMARK   55  A    between atoms: _142  and  _143
REMARK   56  A    between atoms: _148  and  _150
REMARK   57  A    between atoms: _150  and  _151
REMARK   58  A    between atoms: _150  and  _153
REMARK   59  A    between atoms: _153  and  _154
REMARK   60  A    between atoms: _159  and  _161
REMARK   61  A    between atoms: _161  and  _162
REMARK   62  A    between atoms: _161  and  _164
REMARK   63  A    between atoms: _164  and  _165
REMARK   64  A    between atoms: _168  and  _170
REMARK   65  A    between atoms: _170  and  _171
REMARK   66  A    between atoms: _170  and  _173
REMARK   67  A    between atoms: _173  and  _174
REMARK   68  A    between atoms: _179  and  _181
REMARK   69  A    between atoms: _181  and  _182
REMARK   70  A    between atoms: _181  and  _184
REMARK   71  A    between atoms: _184  and  _185
REMARK   72  A    between atoms: _191  and  _193
REMARK   73  A    between atoms: _193  and  _194
REMARK   74  A    between atoms: _193  and  _196
REMARK   75  A    between atoms: _196  and  _197
REMARK   76  A    between atoms: _203  and  _205
REMARK   77  A    between atoms: _205  and  _206
REMARK   78  A    between atoms: _205  and  _208
REMARK   79  A    between atoms: _208  and  _209
REMARK   80  A    between atoms: _209  and  _210
REMARK   81  A    between atoms: _213  and  _215
REMARK   82  A    between atoms: _215  and  _216
REMARK   83  A    between atoms: _218  and  _220
REMARK   84  A    between atoms: _220  and  _221
REMARK   85  A    between atoms: _220  and  _223
REMARK   86  A    between atoms: _223  and  _224
REMARK   87  A    between atoms: _224  and  _225
REMARK   88  A    between atoms: _225  and  _226
REMARK   89  A    between atoms: _235  and  _237
REMARK   90  A    between atoms: _237  and  _238
REMARK   91  A    between atoms: _237  and  _240
REMARK   92  A    between atoms: _240  and  _241
REMARK   93  A    between atoms: _241  and  _242
REMARK   94  A    between atoms: _245  and  _247
REMARK   95  A    between atoms: _247  and  _248
REMARK   96  A    between atoms: _247  and  _250
REMARK   97  A    between atoms: _250  and  _251
REMARK   98  A    between atoms: _256  and  _258
REMARK   99  A    between atoms: _258  and  _259
REMARK  100  A    between atoms: _258  and  _261
REMARK  101  A    between atoms: _261  and  _262
REMARK  102  A    between atoms: _265  and  _267
REMARK  103  A    between atoms: _267  and  _268
REMARK  104  A    between atoms: _267  and  _270
REMARK  105  A    between atoms: _270  and  _271
REMARK  106  A    between atoms: _274  and  _276
REMARK  107  A    between atoms: _276  and  _277
REMARK  108  A    between atoms: _276  and  _279
REMARK  109  A    between atoms: _279  and  _280
REMARK  110  A    between atoms: _285  and  _287
REMARK  111  A    between atoms: _287  and  _288
REMARK  112  A    between atoms: _287  and  _290
REMARK  113  A    between atoms: _290  and  _291
REMARK  114  A    between atoms: _294  and  _296
REMARK  115  A    between atoms: _296  and  _297
REMARK  116  A    between atoms: _296  and  _299
REMARK  117  A    between atoms: _299  and  _300
REMARK  118  A    between atoms: _305  and  _307
REMARK  119  A    between atoms: _307  and  _308
REMARK  120  A    between atoms: _307  and  _310
REMARK  121  A    between atoms: _310  and  _311
REMARK  122  A    between atoms: _316  and  _318
REMARK  123  A    between atoms: _318  and  _319
REMARK  124  A    between atoms: _318  and  _321
REMARK  125  A    between atoms: _321  and  _322
REMARK  126  A    between atoms: _325  and  _327
REMARK  127  A    between atoms: _327  and  _328
REMARK  128  A    between atoms: _327  and  _330
REMARK  129  A    between atoms: _333  and  _335
REMARK  130  A    between atoms: _335  and  _336
REMARK  131  A    between atoms: _335  and  _338
REMARK  132  A    between atoms: _338  and  _339
REMARK  133  A    between atoms: _342  and  _344
REMARK  134  A    between atoms: _344  and  _345
REMARK  135  A    between atoms: _344  and  _347
REMARK  136  A    between atoms: _347  and  _348
REMARK  137  A    between atoms: _348  and  _349
REMARK  138  A    between atoms: _352  and  _354
REMARK  139  A    between atoms: _354  and  _355
REMARK  140  A    between atoms: _358  and  _360
REMARK  141  A    between atoms: _360  and  _361
REMARK  142  A    between atoms: _360  and  _363
REMARK  143  A    between atoms: _363  and  _364
REMARK  144  A    between atoms: _367  and  _369
REMARK  145  A    between atoms: _369  and  _370
REMARK  146  A    between atoms: _369  and  _372
REMARK  147  A    between atoms: _372  and  _373
REMARK  148  A    between atoms: _373  and  _374
REMARK  149  A    between atoms: _377  and  _379
REMARK  150  A    between atoms: _379  and  _380
REMARK  151  A    between atoms: _379  and  _382
REMARK  152  A    between atoms: _382  and  _383
REMARK  153  A    between atoms: _383  and  _384
REMARK  154  A    between atoms: _384  and  _385
REMARK  155  A    between atoms: _394  and  _396
REMARK  156  A    between atoms: _396  and  _397
REMARK  157  A    between atoms: _396  and  _399
REMARK  158  A    between atoms: _399  and  _400
REMARK  159  A    between atoms: _410  and  _412
REMARK  160  A    between atoms: _412  and  _413
REMARK  161  A    between atoms: _412  and  _415
REMARK  162  A    between atoms: _415  and  _416
REMARK  163  A    between atoms: _421  and  _423
REMARK  164  A    between atoms: _423  and  _424
REMARK  165  A    between atoms: _426  and  _428
REMARK  166  A    between atoms: _428  and  _429
REMARK  167  A    between atoms: _428  and  _431
REMARK  168  A    between atoms: _434  and  _436
REMARK  169  A    between atoms: _436  and  _437
REMARK  170  A    between atoms: _440  and  _442
REMARK  171  A    between atoms: _442  and  _443
REMARK  172  A    between atoms: _442  and  _445
REMARK  173  A    between atoms: _445  and  _446
REMARK  174  A    between atoms: _451  and  _453
REMARK  175  A    between atoms: _453  and  _454
REMARK  176  A    between atoms: _453  and  _456
REMARK  177  A    between atoms: _456  and  _457
REMARK  178  A    between atoms: _457  and  _458
REMARK  179  A    between atoms: _458  and  _459
REMARK  180  A    between atoms: _459  and  _460
REMARK  181  A    between atoms: _464  and  _466
REMARK  182  A    between atoms: _466  and  _467
REMARK  183  A    between atoms: _466  and  _469
REMARK  184  A    between atoms: _469  and  _470
REMARK  185  A    between atoms: _475  and  _477
REMARK  186  A    between atoms: _477  and  _478
REMARK  187  A    between atoms: _480  and  _482
REMARK  188  A    between atoms: _482  and  _483
REMARK  189  A    between atoms: _482  and  _485
REMARK  190  A    between atoms: _485  and  _486
REMARK  191  A    between atoms: _486  and  _487
REMARK  192  A    between atoms: _487  and  _488
REMARK  193  A    between atoms: _488  and  _489
REMARK  194  A    between atoms: _493  and  _495
REMARK  195  A    between atoms: _495  and  _496
REMARK  196  A    between atoms: _495  and  _498
REMARK  197  A    between atoms: _498  and  _499
REMARK  198  A    between atoms: _499  and  _500
REMARK  199  A    between atoms: _500  and  _501
REMARK  200  A    between atoms: _510  and  _512
REMARK  201  A    between atoms: _512  and  _513
REMARK  202  A    between atoms: _512  and  _515
REMARK  203  A    between atoms: _515  and  _516
REMARK  204  A    between atoms: _521  and  _522
REMARK  205  A    between atoms: _524  and  _526
REMARK  206  A    between atoms: _526  and  _527
REMARK  207  A    between atoms: _526  and  _529
REMARK  208  A    between atoms: _529  and  _530
REMARK  209  A    between atoms: _530  and  _531
REMARK  210  A    between atoms: _531  and  _532
REMARK  211  A    between atoms: _532  and  _533
REMARK  212  A    between atoms: _537  and  _539
REMARK  213  A    between atoms: _539  and  _540
REMARK  214  A    between atoms: _539  and  _542
REMARK  215  A    between atoms: _542  and  _543
REMARK  216  A    between atoms: _545  and  _547
REMARK  217  A    between atoms: _547  and  _548
REMARK  218  A    between atoms: _547  and  _550
REMARK  219  A    between atoms: _550  and  _551
REMARK  220  A    between atoms: _554  and  _556
REMARK  221  A    between atoms: _556  and  _557
REMARK  222  A    between atoms: _556  and  _559
REMARK  223  A    between atoms: _559  and  _560
REMARK  224  A    between atoms: _560  and  _561
REMARK  225  A    between atoms: _564  and  _566
REMARK  226  A    between atoms: _566  and  _567
REMARK  227  A    between atoms: _570  and  _572
REMARK  228  A    between atoms: _572  and  _573
REMARK  229  A    between atoms: _572  and  _575
REMARK  230  A    between atoms: _575  and  _576
REMARK  231  A    between atoms: _578  and  _580
REMARK  232  A    between atoms: _580  and  _581
REMARK  233  A    between atoms: _583  and  _585
REMARK  234  A    between atoms: _585  and  _586
REMARK  235  A    between atoms: _585  and  _588
REMARK  236  A    between atoms: _588  and  _589
REMARK  237  A    between atoms: _592  and  _594
REMARK  238  A    between atoms: _594  and  _595
REMARK  239  A    between atoms: _597  and  _599
REMARK  240  A    between atoms: _599  and  _600
REMARK  241  A    between atoms: _599  and  _602
REMARK  242  A    between atoms: _602  and  _603
REMARK  243  A    between atoms: _608  and  _610
REMARK  244  A    between atoms: _610  and  _611
REMARK  245  A    between atoms: _610  and  _613
REMARK  246  A    between atoms: _613  and  _614
REMARK  247  A    between atoms: _614  and  _615
REMARK  248  A    between atoms: _622  and  _623
REMARK  249  A    between atoms: _623  and  _639
REMARK  250  A    between atoms: _624  and  _626
REMARK  251  A    between atoms: _626  and  _627
REMARK  252  A    between atoms: _627  and  _628
REMARK  253  A    between atoms: _632  and  _634
REMARK  254  A    between atoms: _634  and  _635
REMARK  255  A    between atoms: _634  and  _642
REMARK  256  A    between atoms: _635  and  _636
REMARK  257  A    between atoms: _636  and  _637
REMARK  258  A    between atoms: _637  and  _638
REMARK  259  A    between atoms: _638  and  _639
REMARK  260  A    between atoms: _644  and  _646
REMARK  261  A    between atoms: _646  and  _647
REMARK  262  A    between atoms: _646  and  _649
REMARK  263  A    between atoms: _649  and  _650
REMARK  264  A    between atoms: _653  and  _655
REMARK  265  A    between atoms: _655  and  _656
REMARK  266  A    between atoms: _658  and  _660
REMARK  267  A    between atoms: _660  and  _661
REMARK  268  A    between atoms: _664  and  _666
REMARK  269  A    between atoms: _666  and  _667
REMARK  270  A    between atoms: _666  and  _669
REMARK  271  A    between atoms: _669  and  _670
REMARK  272  A    between atoms: _675  and  _676
REMARK                            x       y       z     vdW  Elec       q    Type
REMARK                         _______ _______ _______ _____ _____    ______ ____
ROOT
ATOM      1  O   HOH     1      41.408  26.415  37.748  0.00  0.00    +0.000 OA
ENDROOT
TORSDOF 0
REMARK  Name = ../refined-set-2016/3l7a/3l7a_pocket.pdb
REMARK  272 active torsions:
REMARK  status: ('A' for Active; 'I' for Inactive)
REMARK    1  A    between atoms: _1  and  _3
REMARK    2  A    between atoms: _3  and  _4
REMARK    3  A    between atoms: _3  and  _6
REMARK    4  A    between atoms: _6  and  _7
REMARK    5  A    between atoms: _12  and  _13
REMARK    6  A    between atoms: _15  and  _17
REMARK    7  A    between atoms: _17  and  _18
REMARK    8  A    between atoms: _17  and  _20
REMARK    9  A    between atoms: _20  and  _21
REMARK   10  A    between atoms: _24  and  _26
REMARK   11  A    between atoms: _26  and  _27
REMARK   12  A    between atoms: _26  and  _29
REMARK   13  A    between atoms: _29  and  _30
REMARK   14  A    between atoms: _30  and  _31
REMARK   15  A    between atoms: _34  and  _36
REMARK   16  A    between atoms: _36  and  _37
REMARK   17  A    between atoms: _36  and  _39
REMARK   18  A    between atoms: _39  and  _40
REMARK   19  A    between atoms: _45  and  _46
REMARK   20  A    between atoms: _48  and  _50
REMARK   21  A    between atoms: _50  and  _51
REMARK   22  A    between atoms: _50  and  _53
REMARK   23  A    between atoms: _53  and  _54
REMARK   24  A    between atoms: _59  and  _61
REMARK   25  A    between atoms: _61  and  _62
REMARK   26  A    between atoms: _64  and  _66
REMARK   27  A    between atoms: _66  and  _67
REMARK   28  A    between atoms: _69  and  _71
REMARK   29  A    between atoms: _71  and  _72
REMARK   30  A    between atoms: _71  and  _74
REMARK   31  A    between atoms: _74  and  _75
REMARK   32  A    between atoms: _78  and  _80
REMARK   33  A    between atoms: _80  and  _81
REMARK   34  A    between atoms: _83  and  _85
REMARK   35  A    between atoms: _85  and  _86
REMARK   36  A    between atoms: _85  and  _88
REMARK   37  A    between atoms: _88  and  _89
REMARK   38  A    between atoms: _89  and  _90
REMARK   39  A    between atoms: _90  and  _91
REMARK   40  A    between atoms: _100  and  _102
REMARK   41  A    between atoms: _102  and  _103
REMARK   42  A    between atoms: _102  and  _105
REMARK   43  A    between atoms: _105  and  _106
REMARK   44  A    between atoms: _109  and  _111
REMARK   45  A    between atoms: _111  and  _112
REMARK   46  A    between atoms: _115  and  _117
REMARK   47  A    between atoms: _117  and  _118
REMARK   48  A    between atoms: _117  and  _120
REMARK   49  A    between atoms: _120  and  _121
REMARK   50  A    between atoms: _127  and  _129
REMARK   51  A    between atoms: _129  and  _130
REMARK   52  A    between atoms: _129  and  _132
REMARK   53  A    between atoms: _132  and  _133
REMARK   54  A    between atoms: _138  and  _139
REMARK   55  A    between atoms: _142  and  _143
REMARK   56  A    between atoms: _148  and  _150
REMARK   57  A    between atoms: _150  and  _151
REMARK   58  A    between atoms: _150  and  _153
REMARK   59  A    between atoms: _153  and  _154
REMARK   60  A    between atoms: _159  and  _161
REMARK   61  A    between atoms: _161  and  _162
REMARK   62  A    between atoms: _161  and  _164
REMARK   63  A    between atoms: _164  and  _165
REMARK   64  A    between atoms: _168  and  _170
REMARK   65  A    between atoms: _170  and  _171
REMARK   66  A    between atoms: _170  and  _173
REMARK   67  A    between atoms: _173  and  _174
REMARK   68  A    between atoms: _179  and  _181
REMARK   69  A    between atoms: _181  and  _182
REMARK   70  A    between atoms: _181  and  _184
REMARK   71  A    between atoms: _184  and  _185
REMARK   72  A    between atoms: _191  and  _193
REMARK   73  A    between atoms: _193  and  _194
REMARK   74  A    between atoms: _193  and  _196
REMARK   75  A    between atoms: _196  and  _197
REMARK   76  A    between atoms: _203  and  _205
REMARK   77  A    between atoms: _205  and  _206
REMARK   78  A    between atoms: _205  and  _208
REMARK   79  A    between atoms: _208  and  _209
REMARK   80  A    between atoms: _209  and  _210
REMARK   81  A    between atoms: _213  and  _215
REMARK   82  A    between atoms: _215  and  _216
REMARK   83  A    between atoms: _218  and  _220
REMARK   84  A    between atoms: _220  and  _221
REMARK   85  A    between atoms: _220  and  _223
REMARK   86  A    between atoms: _223  and  _224
REMARK   87  A    between atoms: _224  and  _225
REMARK   88  A    between atoms: _225  and  _226
REMARK   89  A    between atoms: _235  and  _237
REMARK   90  A    between atoms: _237  and  _238
REMARK   91  A    between atoms: _237  and  _240
REMARK   92  A    between atoms: _240  and  _241
REMARK   93  A    between atoms: _241  and  _242
REMARK   94  A    between atoms: _245  and  _247
REMARK   95  A    between atoms: _247  and  _248
REMARK   96  A    between atoms: _247  and  _250
REMARK   97  A    between atoms: _250  and  _251
REMARK   98  A    between atoms: _256  and  _258
REMARK   99  A    between atoms: _258  and  _259
REMARK  100  A    between atoms: _258  and  _261
REMARK  101  A    between atoms: _261  and  _262
REMARK  102  A    between atoms: _265  and  _267
REMARK  103  A    between atoms: _267  and  _268
REMARK  104  A    between atoms: _267  and  _270
REMARK  105  A    between atoms: _270  and  _271
REMARK  106  A    between atoms: _274  and  _276
REMARK  107  A    between atoms: _276  and  _277
REMARK  108  A    between atoms: _276  and  _279
REMARK  109  A    between atoms: _279  and  _280
REMARK  110  A    between atoms: _285  and  _287
REMARK  111  A    between atoms: _287  and  _288
REMARK  112  A    between atoms: _287  and  _290
REMARK  113  A    between atoms: _290  and  _291
REMARK  114  A    between atoms: _294  and  _296
REMARK  115  A    between atoms: _296  and  _297
REMARK  116  A    between atoms: _296  and  _299
REMARK  117  A    between atoms: _299  and  _300
REMARK  118  A    between atoms: _305  and  _307
REMARK  119  A    between atoms: _307  and  _308
REMARK  120  A    between atoms: _307  and  _310
REMARK  121  A    between atoms: _310  and  _311
REMARK  122  A    between atoms: _316  and  _318
REMARK  123  A    between atoms: _318  and  _319
REMARK  124  A    between atoms: _318  and  _321
REMARK  125  A    between atoms: _321  and  _322
REMARK  126  A    between atoms: _325  and  _327
REMARK  127  A    between atoms: _327  and  _328
REMARK  128  A    between atoms: _327  and  _330
REMARK  129  A    between atoms: _333  and  _335
REMARK  130  A    between atoms: _335  and  _336
REMARK  131  A    between atoms: _335  and  _338
REMARK  132  A    between atoms: _338  and  _339
REMARK  133  A    between atoms: _342  and  _344
REMARK  134  A    between atoms: _344  and  _345
REMARK  135  A    between atoms: _344  and  _347
REMARK  136  A    between atoms: _347  and  _348
REMARK  137  A    between atoms: _348  and  _349
REMARK  138  A    between atoms: _352  and  _354
REMARK  139  A    between atoms: _354  and  _355
REMARK  140  A    between atoms: _358  and  _360
REMARK  141  A    between atoms: _360  and  _361
REMARK  142  A    between atoms: _360  and  _363
REMARK  143  A    between atoms: _363  and  _364
REMARK  144  A    between atoms: _367  and  _369
REMARK  145  A    between atoms: _369  and  _370
REMARK  146  A    between atoms: _369  and  _372
REMARK  147  A    between atoms: _372  and  _373
REMARK  148  A    between atoms: _373  and  _374
REMARK  149  A    between atoms: _377  and  _379
REMARK  150  A    between atoms: _379  and  _380
REMARK  151  A    between atoms: _379  and  _382
REMARK  152  A    between atoms: _382  and  _383
REMARK  153  A    between atoms: _383  and  _384
REMARK  154  A    between atoms: _384  and  _385
REMARK  155  A    between atoms: _394  and  _396
REMARK  156  A    between atoms: _396  and  _397
REMARK  157  A    between atoms: _396  and  _399
REMARK  158  A    between atoms: _399  and  _400
REMARK  159  A    between atoms: _410  and  _412
REMARK  160  A    between atoms: _412  and  _413
REMARK  161  A    between atoms: _412  and  _415
REMARK  162  A    between atoms: _415  and  _416
REMARK  163  A    between atoms: _421  and  _423
REMARK  164  A    between atoms: _423  and  _424
REMARK  165  A    between atoms: _426  and  _428
REMARK  166  A    between atoms: _428  and  _429
REMARK  167  A    between atoms: _428  and  _431
REMARK  168  A    between atoms: _434  and  _436
REMARK  169  A    between atoms: _436  and  _437
REMARK  170  A    between atoms: _440  and  _442
REMARK  171  A    between atoms: _442  and  _443
REMARK  172  A    between atoms: _442  and  _445
REMARK  173  A    between atoms: _445  and  _446
REMARK  174  A    between atoms: _451  and  _453
REMARK  175  A    between atoms: _453  and  _454
REMARK  176  A    between atoms: _453  and  _456
REMARK  177  A    between atoms: _456  and  _457
REMARK  178  A    between atoms: _457  and  _458
REMARK  179  A    between atoms: _458  and  _459
REMARK  180  A    between atoms: _459  and  _460
REMARK  181  A    between atoms: _464  and  _466
REMARK  182  A    between atoms: _466  and  _467
REMARK  183  A    between atoms: _466  and  _469
REMARK  184  A    between atoms: _469  and  _470
REMARK  185  A    between atoms: _475  and  _477
REMARK  186  A    between atoms: _477  and  _478
REMARK  187  A    between atoms: _480  and  _482
REMARK  188  A    between atoms: _482  and  _483
REMARK  189  A    between atoms: _482  and  _485
REMARK  190  A    between atoms: _485  and  _486
REMARK  191  A    between atoms: _486  and  _487
REMARK  192  A    between atoms: _487  and  _488
REMARK  193  A    between atoms: _488  and  _489
REMARK  194  A    between atoms: _493  and  _495
REMARK  195  A    between atoms: _495  and  _496
REMARK  196  A    between atoms: _495  and  _498
REMARK  197  A    between atoms: _498  and  _499
REMARK  198  A    between atoms: _499  and  _500
REMARK  199  A    between atoms: _500  and  _501
REMARK  200  A    between atoms: _510  and  _512
REMARK  201  A    between atoms: _512  and  _513
REMARK  202  A    between atoms: _512  and  _515
REMARK  203  A    between atoms: _515  and  _516
REMARK  204  A    between atoms: _521  and  _522
REMARK  205  A    between atoms: _524  and  _526
REMARK  206  A    between atoms: _526  and  _527
REMARK  207  A    between atoms: _526  and  _529
REMARK  208  A    between atoms: _529  and  _530
REMARK  209  A    between atoms: _530  and  _531
REMARK  210  A    between atoms: _531  and  _532
REMARK  211  A    between atoms: _532  and  _533
REMARK  212  A    between atoms: _537  and  _539
REMARK  213  A    between atoms: _539  and  _540
REMARK  214  A    between atoms: _539  and  _542
REMARK  215  A    between atoms: _542  and  _543
REMARK  216  A    between atoms: _545  and  _547
REMARK  217  A    between atoms: _547  and  _548
REMARK  218  A    between atoms: _547  and  _550
REMARK  219  A    between atoms: _550  and  _551
REMARK  220  A    between atoms: _554  and  _556
REMARK  221  A    between atoms: _556  and  _557
REMARK  222  A    between atoms: _556  and  _559
REMARK  223  A    between atoms: _559  and  _560
REMARK  224  A    between atoms: _560  and  _561
REMARK  225  A    between atoms: _564  and  _566
REMARK  226  A    between atoms: _566  and  _567
REMARK  227  A    between atoms: _570  and  _572
REMARK  228  A    between atoms: _572  and  _573
REMARK  229  A    between atoms: _572  and  _575
REMARK  230  A    between atoms: _575  and  _576
REMARK  231  A    between atoms: _578  and  _580
REMARK  232  A    between atoms: _580  and  _581
REMARK  233  A    between atoms: _583  and  _585
REMARK  234  A    between atoms: _585  and  _586
REMARK  235  A    between atoms: _585  and  _588
REMARK  236  A    between atoms: _588  and  _589
REMARK  237  A    between atoms: _592  and  _594
REMARK  238  A    between atoms: _594  and  _595
REMARK  239  A    between atoms: _597  and  _599
REMARK  240  A    between atoms: _599  and  _600
REMARK  241  A    between atoms: _599  and  _602
REMARK  242  A    between atoms: _602  and  _603
REMARK  243  A    between atoms: _608  and  _610
REMARK  244  A    between atoms: _610  and  _611
REMARK  245  A    between atoms: _610  and  _613
REMARK  246  A    between atoms: _613  and  _614
REMARK  247  A    between atoms: _614  and  _615
REMARK  248  A    between atoms: _622  and  _623
REMARK  249  A    between atoms: _623  and  _639
REMARK  250  A    between atoms: _624  and  _626
REMARK  251  A    between atoms: _626  and  _627
REMARK  252  A    between atoms: _627  and  _628
REMARK  253  A    between atoms: _632  and  _634
REMARK  254  A    between atoms: _634  and  _635
REMARK  255  A    between atoms: _634  and  _642
REMARK  256  A    between atoms: _635  and  _636
REMARK  257  A    between atoms: _636  and  _637
REMARK  258  A    between atoms: _637  and  _638
REMARK  259  A    between atoms: _638  and  _639
REMARK  260  A    between atoms: _644  and  _646
REMARK  261  A    between atoms: _646  and  _647
REMARK  262  A    between atoms: _646  and  _649
REMARK  263  A    between atoms: _649  and  _650
REMARK  264  A    between atoms: _653  and  _655
REMARK  265  A    between atoms: _655  and  _656
REMARK  266  A    between atoms: _658  and  _660
REMARK  267  A    between atoms: _660  and  _661
REMARK  268  A    between atoms: _664  and  _666
REMARK  269  A    between atoms: _666  and  _667
REMARK  270  A    between atoms: _666  and  _669
REMARK  271  A    between atoms: _669  and  _670
REMARK  272  A    between atoms: _675  and  _676
REMARK                            x       y       z     vdW  Elec       q    Type
REMARK                         _______ _______ _______ _____ _____    ______ ____
ROOT
ATOM      1  O   HOH     1      36.979  22.275  18.042  0.00  0.00    +0.000 OA
ENDROOT
TORSDOF 0
REMARK  Name = ../refined-set-2016/3l7a/3l7a_pocket.pdb
REMARK  272 active torsions:
REMARK  status: ('A' for Active; 'I' for Inactive)
REMARK    1  A    between atoms: _1  and  _3
REMARK    2  A    between atoms: _3  and  _4
REMARK    3  A    between atoms: _3  and  _6
REMARK    4  A    between atoms: _6  and  _7
REMARK    5  A    between atoms: _12  and  _13
REMARK    6  A    between atoms: _15  and  _17
REMARK    7  A    between atoms: _17  and  _18
REMARK    8  A    between atoms: _17  and  _20
REMARK    9  A    between atoms: _20  and  _21
REMARK   10  A    between atoms: _24  and  _26
REMARK   11  A    between atoms: _26  and  _27
REMARK   12  A    between atoms: _26  and  _29
REMARK   13  A    between atoms: _29  and  _30
REMARK   14  A    between atoms: _30  and  _31
REMARK   15  A    between atoms: _34  and  _36
REMARK   16  A    between atoms: _36  and  _37
REMARK   17  A    between atoms: _36  and  _39
REMARK   18  A    between atoms: _39  and  _40
REMARK   19  A    between atoms: _45  and  _46
REMARK   20  A    between atoms: _48  and  _50
REMARK   21  A    between atoms: _50  and  _51
REMARK   22  A    between atoms: _50  and  _53
REMARK   23  A    between atoms: _53  and  _54
REMARK   24  A    between atoms: _59  and  _61
REMARK   25  A    between atoms: _61  and  _62
REMARK   26  A    between atoms: _64  and  _66
REMARK   27  A    between atoms: _66  and  _67
REMARK   28  A    between atoms: _69  and  _71
REMARK   29  A    between atoms: _71  and  _72
REMARK   30  A    between atoms: _71  and  _74
REMARK   31  A    between atoms: _74  and  _75
REMARK   32  A    between atoms: _78  and  _80
REMARK   33  A    between atoms: _80  and  _81
REMARK   34  A    between atoms: _83  and  _85
REMARK   35  A    between atoms: _85  and  _86
REMARK   36  A    between atoms: _85  and  _88
REMARK   37  A    between atoms: _88  and  _89
REMARK   38  A    between atoms: _89  and  _90
REMARK   39  A    between atoms: _90  and  _91
REMARK   40  A    between atoms: _100  and  _102
REMARK   41  A    between atoms: _102  and  _103
REMARK   42  A    between atoms: _102  and  _105
REMARK   43  A    between atoms: _105  and  _106
REMARK   44  A    between atoms: _109  and  _111
REMARK   45  A    between atoms: _111  and  _112
REMARK   46  A    between atoms: _115  and  _117
REMARK   47  A    between atoms: _117  and  _118
REMARK   48  A    between atoms: _117  and  _120
REMARK   49  A    between atoms: _120  and  _121
REMARK   50  A    between atoms: _127  and  _129
REMARK   51  A    between atoms: _129  and  _130
REMARK   52  A    between atoms: _129  and  _132
REMARK   53  A    between atoms: _132  and  _133
REMARK   54  A    between atoms: _138  and  _139
REMARK   55  A    between atoms: _142  and  _143
REMARK   56  A    between atoms: _148  and  _150
REMARK   57  A    between atoms: _150  and  _151
REMARK   58  A    between atoms: _150  and  _153
REMARK   59  A    between atoms: _153  and  _154
REMARK   60  A    between atoms: _159  and  _161
REMARK   61  A    between atoms: _161  and  _162
REMARK   62  A    between atoms: _161  and  _164
REMARK   63  A    between atoms: _164  and  _165
REMARK   64  A    between atoms: _168  and  _170
REMARK   65  A    between atoms: _170  and  _171
REMARK   66  A    between atoms: _170  and  _173
REMARK   67  A    between atoms: _173  and  _174
REMARK   68  A    between atoms: _179  and  _181
REMARK   69  A    between atoms: _181  and  _182
REMARK   70  A    between atoms: _181  and  _184
REMARK   71  A    between atoms: _184  and  _185
REMARK   72  A    between atoms: _191  and  _193
REMARK   73  A    between atoms: _193  and  _194
REMARK   74  A    between atoms: _193  and  _196
REMARK   75  A    between atoms: _196  and  _197
REMARK   76  A    between atoms: _203  and  _205
REMARK   77  A    between atoms: _205  and  _206
REMARK   78  A    between atoms: _205  and  _208
REMARK   79  A    between atoms: _208  and  _209
REMARK   80  A    between atoms: _209  and  _210
REMARK   81  A    between atoms: _213  and  _215
REMARK   82  A    between atoms: _215  and  _216
REMARK   83  A    between atoms: _218  and  _220
REMARK   84  A    between atoms: _220  and  _221
REMARK   85  A    between atoms: _220  and  _223
REMARK   86  A    between atoms: _223  and  _224
REMARK   87  A    between atoms: _224  and  _225
REMARK   88  A    between atoms: _225  and  _226
REMARK   89  A    between atoms: _235  and  _237
REMARK   90  A    between atoms: _237  and  _238
REMARK   91  A    between atoms: _237  and  _240
REMARK   92  A    between atoms: _240  and  _241
REMARK   93  A    between atoms: _241  and  _242
REMARK   94  A    between atoms: _245  and  _247
REMARK   95  A    between atoms: _247  and  _248
REMARK   96  A    between atoms: _247  and  _250
REMARK   97  A    between atoms: _250  and  _251
REMARK   98  A    between atoms: _256  and  _258
REMARK   99  A    between atoms: _258  and  _259
REMARK  100  A    between atoms: _258  and  _261
REMARK  101  A    between atoms: _261  and  _262
REMARK  102  A    between atoms: _265  and  _267
REMARK  103  A    between atoms: _267  and  _268
REMARK  104  A    between atoms: _267  and  _270
REMARK  105  A    between atoms: _270  and  _271
REMARK  106  A    between atoms: _274  and  _276
REMARK  107  A    between atoms: _276  and  _277
REMARK  108  A    between atoms: _276  and  _279
REMARK  109  A    between atoms: _279  and  _280
REMARK  110  A    between atoms: _285  and  _287
REMARK  111  A    between atoms: _287  and  _288
REMARK  112  A    between atoms: _287  and  _290
REMARK  113  A    between atoms: _290  and  _291
REMARK  114  A    between atoms: _294  and  _296
REMARK  115  A    between atoms: _296  and  _297
REMARK  116  A    between atoms: _296  and  _299
REMARK  117  A    between atoms: _299  and  _300
REMARK  118  A    between atoms: _305  and  _307
REMARK  119  A    between atoms: _307  and  _308
REMARK  120  A    between atoms: _307  and  _310
REMARK  121  A    between atoms: _310  and  _311
REMARK  122  A    between atoms: _316  and  _318
REMARK  123  A    between atoms: _318  and  _319
REMARK  124  A    between atoms: _318  and  _321
REMARK  125  A    between atoms: _321  and  _322
REMARK  126  A    between atoms: _325  and  _327
REMARK  127  A    between atoms: _327  and  _328
REMARK  128  A    between atoms: _327  and  _330
REMARK  129  A    between atoms: _333  and  _335
REMARK  130  A    between atoms: _335  and  _336
REMARK  131  A    between atoms: _335  and  _338
REMARK  132  A    between atoms: _338  and  _339
REMARK  133  A    between atoms: _342  and  _344
REMARK  134  A    between atoms: _344  and  _345
REMARK  135  A    between atoms: _344  and  _347
REMARK  136  A    between atoms: _347  and  _348
REMARK  137  A    between atoms: _348  and  _349
REMARK  138  A    between atoms: _352  and  _354
REMARK  139  A    between atoms: _354  and  _355
REMARK  140  A    between atoms: _358  and  _360
REMARK  141  A    between atoms: _360  and  _361
REMARK  142  A    between atoms: _360  and  _363
REMARK  143  A    between atoms: _363  and  _364
REMARK  144  A    between atoms: _367  and  _369
REMARK  145  A    between atoms: _369  and  _370
REMARK  146  A    between atoms: _369  and  _372
REMARK  147  A    between atoms: _372  and  _373
REMARK  148  A    between atoms: _373  and  _374
REMARK  149  A    between atoms: _377  and  _379
REMARK  150  A    between atoms: _379  and  _380
REMARK  151  A    between atoms: _379  and  _382
REMARK  152  A    between atoms: _382  and  _383
REMARK  153  A    between atoms: _383  and  _384
REMARK  154  A    between atoms: _384  and  _385
REMARK  155  A    between atoms: _394  and  _396
REMARK  156  A    between atoms: _396  and  _397
REMARK  157  A    between atoms: _396  and  _399
REMARK  158  A    between atoms: _399  and  _400
REMARK  159  A    between atoms: _410  and  _412
REMARK  160  A    between atoms: _412  and  _413
REMARK  161  A    between atoms: _412  and  _415
REMARK  162  A    between atoms: _415  and  _416
REMARK  163  A    between atoms: _421  and  _423
REMARK  164  A    between atoms: _423  and  _424
REMARK  165  A    between atoms: _426  and  _428
REMARK  166  A    between atoms: _428  and  _429
REMARK  167  A    between atoms: _428  and  _431
REMARK  168  A    between atoms: _434  and  _436
REMARK  169  A    between atoms: _436  and  _437
REMARK  170  A    between atoms: _440  and  _442
REMARK  171  A    between atoms: _442  and  _443
REMARK  172  A    between atoms: _442  and  _445
REMARK  173  A    between atoms: _445  and  _446
REMARK  174  A    between atoms: _451  and  _453
REMARK  175  A    between atoms: _453  and  _454
REMARK  176  A    between atoms: _453  and  _456
REMARK  177  A    between atoms: _456  and  _457
REMARK  178  A    between atoms: _457  and  _458
REMARK  179  A    between atoms: _458  and  _459
REMARK  180  A    between atoms: _459  and  _460
REMARK  181  A    between atoms: _464  and  _466
REMARK  182  A    between atoms: _466  and  _467
REMARK  183  A    between atoms: _466  and  _469
REMARK  184  A    between atoms: _469  and  _470
REMARK  185  A    between atoms: _475  and  _477
REMARK  186  A    between atoms: _477  and  _478
REMARK  187  A    between atoms: _480  and  _482
REMARK  188  A    between atoms: _482  and  _483
REMARK  189  A    between atoms: _482  and  _485
REMARK  190  A    between atoms: _485  and  _486
REMARK  191  A    between atoms: _486  and  _487
REMARK  192  A    between atoms: _487  and  _488
REMARK  193  A    between atoms: _488  and  _489
REMARK  194  A    between atoms: _493  and  _495
REMARK  195  A    between atoms: _495  and  _496
REMARK  196  A    between atoms: _495  and  _498
REMARK  197  A    between atoms: _498  and  _499
REMARK  198  A    between atoms: _499  and  _500
REMARK  199  A    between atoms: _500  and  _501
REMARK  200  A    between atoms: _510  and  _512
REMARK  201  A    between atoms: _512  and  _513
REMARK  202  A    between atoms: _512  and  _515
REMARK  203  A    between atoms: _515  and  _516
REMARK  204  A    between atoms: _521  and  _522
REMARK  205  A    between atoms: _524  and  _526
REMARK  206  A    between atoms: _526  and  _527
REMARK  207  A    between atoms: _526  and  _529
REMARK  208  A    between atoms: _529  and  _530
REMARK  209  A    between atoms: _530  and  _531
REMARK  210  A    between atoms: _531  and  _532
REMARK  211  A    between atoms: _532  and  _533
REMARK  212  A    between atoms: _537  and  _539
REMARK  213  A    between atoms: _539  and  _540
REMARK  214  A    between atoms: _539  and  _542
REMARK  215  A    between atoms: _542  and  _543
REMARK  216  A    between atoms: _545  and  _547
REMARK  217  A    between atoms: _547  and  _548
REMARK  218  A    between atoms: _547  and  _550
REMARK  219  A    between atoms: _550  and  _551
REMARK  220  A    between atoms: _554  and  _556
REMARK  221  A    between atoms: _556  and  _557
REMARK  222  A    between atoms: _556  and  _559
REMARK  223  A    between atoms: _559  and  _560
REMARK  224  A    between atoms: _560  and  _561
REMARK  225  A    between atoms: _564  and  _566
REMARK  226  A    between atoms: _566  and  _567
REMARK  227  A    between atoms: _570  and  _572
REMARK  228  A    between atoms: _572  and  _573
REMARK  229  A    between atoms: _572  and  _575
REMARK  230  A    between atoms: _575  and  _576
REMARK  231  A    between atoms: _578  and  _580
REMARK  232  A    between atoms: _580  and  _581
REMARK  233  A    between atoms: _583  and  _585
REMARK  234  A    between atoms: _585  and  _586
REMARK  235  A    between atoms: _585  and  _588
REMARK  236  A    between atoms: _588  and  _589
REMARK  237  A    between atoms: _592  and  _594
REMARK  238  A    between atoms: _594  and  _595
REMARK  239  A    between atoms: _597  and  _599
REMARK  240  A    between atoms: _599  and  _600
REMARK  241  A    between atoms: _599  and  _602
REMARK  242  A    between atoms: _602  and  _603
REMARK  243  A    between atoms: _608  and  _610
REMARK  244  A    between atoms: _610  and  _611
REMARK  245  A    between atoms: _610  and  _613
REMARK  246  A    between atoms: _613  and  _614
REMARK  247  A    between atoms: _614  and  _615
REMARK  248  A    between atoms: _622  and  _623
REMARK  249  A    between atoms: _623  and  _639
REMARK  250  A    between atoms: _624  and  _626
REMARK  251  A    between atoms: _626  and  _627
REMARK  252  A    between atoms: _627  and  _628
REMARK  253  A    between atoms: _632  and  _634
REMARK  254  A    between atoms: _634  and  _635
REMARK  255  A    between atoms: _634  and  _642
REMARK  256  A    between atoms: _635  and  _636
REMARK  257  A    between atoms: _636  and  _637
REMARK  258  A    between atoms: _637  and  _638
REMARK  259  A    between atoms: _638  and  _639
REMARK  260  A    between atoms: _644  and  _646
REMARK  261  A    between atoms: _646  and  _647
REMARK  262  A    between atoms: _646  and  _649
REMARK  263  A    between atoms: _649  and  _650
REMARK  264  A    between atoms: _653  and  _655
REMARK  265  A    between atoms: _655  and  _656
REMARK  266  A    between atoms: _658  and  _660
REMARK  267  A    between atoms: _660  and  _661
REMARK  268  A    between atoms: _664  and  _666
REMARK  269  A    between atoms: _666  and  _667
REMARK  270  A    between atoms: _666  and  _669
REMARK  271  A    between atoms: _669  and  _670
REMARK  272  A    between atoms: _675  and  _676
REMARK                            x       y       z     vdW  Elec       q    Type
REMARK                         _______ _______ _______ _____ _____    ______ ____
ROOT
ATOM      1  O   HOH     1      36.238  34.081  32.890  0.00  0.00    +0.000 OA
ENDROOT
TORSDOF 0
REMARK  Name = ../refined-set-2016/3l7a/3l7a_pocket.pdb
REMARK  272 active torsions:
REMARK  status: ('A' for Active; 'I' for Inactive)
REMARK    1  A    between atoms: _1  and  _3
REMARK    2  A    between atoms: _3  and  _4
REMARK    3  A    between atoms: _3  and  _6
REMARK    4  A    between atoms: _6  and  _7
REMARK    5  A    between atoms: _12  and  _13
REMARK    6  A    between atoms: _15  and  _17
REMARK    7  A    between atoms: _17  and  _18
REMARK    8  A    between atoms: _17  and  _20
REMARK    9  A    between atoms: _20  and  _21
REMARK   10  A    between atoms: _24  and  _26
REMARK   11  A    between atoms: _26  and  _27
REMARK   12  A    between atoms: _26  and  _29
REMARK   13  A    between atoms: _29  and  _30
REMARK   14  A    between atoms: _30  and  _31
REMARK   15  A    between atoms: _34  and  _36
REMARK   16  A    between atoms: _36  and  _37
REMARK   17  A    between atoms: _36  and  _39
REMARK   18  A    between atoms: _39  and  _40
REMARK   19  A    between atoms: _45  and  _46
REMARK   20  A    between atoms: _48  and  _50
REMARK   21  A    between atoms: _50  and  _51
REMARK   22  A    between atoms: _50  and  _53
REMARK   23  A    between atoms: _53  and  _54
REMARK   24  A    between atoms: _59  and  _61
REMARK   25  A    between atoms: _61  and  _62
REMARK   26  A    between atoms: _64  and  _66
REMARK   27  A    between atoms: _66  and  _67
REMARK   28  A    between atoms: _69  and  _71
REMARK   29  A    between atoms: _71  and  _72
REMARK   30  A    between atoms: _71  and  _74
REMARK   31  A    between atoms: _74  and  _75
REMARK   32  A    between atoms: _78  and  _80
REMARK   33  A    between atoms: _80  and  _81
REMARK   34  A    between atoms: _83  and  _85
REMARK   35  A    between atoms: _85  and  _86
REMARK   36  A    between atoms: _85  and  _88
REMARK   37  A    between atoms: _88  and  _89
REMARK   38  A    between atoms: _89  and  _90
REMARK   39  A    between atoms: _90  and  _91
REMARK   40  A    between atoms: _100  and  _102
REMARK   41  A    between atoms: _102  and  _103
REMARK   42  A    between atoms: _102  and  _105
REMARK   43  A    between atoms: _105  and  _106
REMARK   44  A    between atoms: _109  and  _111
REMARK   45  A    between atoms: _111  and  _112
REMARK   46  A    between atoms: _115  and  _117
REMARK   47  A    between atoms: _117  and  _118
REMARK   48  A    between atoms: _117  and  _120
REMARK   49  A    between atoms: _120  and  _121
REMARK   50  A    between atoms: _127  and  _129
REMARK   51  A    between atoms: _129  and  _130
REMARK   52  A    between atoms: _129  and  _132
REMARK   53  A    between atoms: _132  and  _133
REMARK   54  A    between atoms: _138  and  _139
REMARK   55  A    between atoms: _142  and  _143
REMARK   56  A    between atoms: _148  and  _150
REMARK   57  A    between atoms: _150  and  _151
REMARK   58  A    between atoms: _150  and  _153
REMARK   59  A    between atoms: _153  and  _154
REMARK   60  A    between atoms: _159  and  _161
REMARK   61  A    between atoms: _161  and  _162
REMARK   62  A    between atoms: _161  and  _164
REMARK   63  A    between atoms: _164  and  _165
REMARK   64  A    between atoms: _168  and  _170
REMARK   65  A    between atoms: _170  and  _171
REMARK   66  A    between atoms: _170  and  _173
REMARK   67  A    between atoms: _173  and  _174
REMARK   68  A    between atoms: _179  and  _181
REMARK   69  A    between atoms: _181  and  _182
REMARK   70  A    between atoms: _181  and  _184
REMARK   71  A    between atoms: _184  and  _185
REMARK   72  A    between atoms: _191  and  _193
REMARK   73  A    between atoms: _193  and  _194
REMARK   74  A    between atoms: _193  and  _196
REMARK   75  A    between atoms: _196  and  _197
REMARK   76  A    between atoms: _203  and  _205
REMARK   77  A    between atoms: _205  and  _206
REMARK   78  A    between atoms: _205  and  _208
REMARK   79  A    between atoms: _208  and  _209
REMARK   80  A    between atoms: _209  and  _210
REMARK   81  A    between atoms: _213  and  _215
REMARK   82  A    between atoms: _215  and  _216
REMARK   83  A    between atoms: _218  and  _220
REMARK   84  A    between atoms: _220  and  _221
REMARK   85  A    between atoms: _220  and  _223
REMARK   86  A    between atoms: _223  and  _224
REMARK   87  A    between atoms: _224  and  _225
REMARK   88  A    between atoms: _225  and  _226
REMARK   89  A    between atoms: _235  and  _237
REMARK   90  A    between atoms: _237  and  _238
REMARK   91  A    between atoms: _237  and  _240
REMARK   92  A    between atoms: _240  and  _241
REMARK   93  A    between atoms: _241  and  _242
REMARK   94  A    between atoms: _245  and  _247
REMARK   95  A    between atoms: _247  and  _248
REMARK   96  A    between atoms: _247  and  _250
REMARK   97  A    between atoms: _250  and  _251
REMARK   98  A    between atoms: _256  and  _258
REMARK   99  A    between atoms: _258  and  _259
REMARK  100  A    between atoms: _258  and  _261
REMARK  101  A    between atoms: _261  and  _262
REMARK  102  A    between atoms: _265  and  _267
REMARK  103  A    between atoms: _267  and  _268
REMARK  104  A    between atoms: _267  and  _270
REMARK  105  A    between atoms: _270  and  _271
REMARK  106  A    between atoms: _274  and  _276
REMARK  107  A    between atoms: _276  and  _277
REMARK  108  A    between atoms: _276  and  _279
REMARK  109  A    between atoms: _279  and  _280
REMARK  110  A    between atoms: _285  and  _287
REMARK  111  A    between atoms: _287  and  _288
REMARK  112  A    between atoms: _287  and  _290
REMARK  113  A    between atoms: _290  and  _291
REMARK  114  A    between atoms: _294  and  _296
REMARK  115  A    between atoms: _296  and  _297
REMARK  116  A    between atoms: _296  and  _299
REMARK  117  A    between atoms: _299  and  _300
REMARK  118  A    between atoms: _305  and  _307
REMARK  119  A    between atoms: _307  and  _308
REMARK  120  A    between atoms: _307  and  _310
REMARK  121  A    between atoms: _310  and  _311
REMARK  122  A    between atoms: _316  and  _318
REMARK  123  A    between atoms: _318  and  _319
REMARK  124  A    between atoms: _318  and  _321
REMARK  125  A    between atoms: _321  and  _322
REMARK  126  A    between atoms: _325  and  _327
REMARK  127  A    between atoms: _327  and  _328
REMARK  128  A    between atoms: _327  and  _330
REMARK  129  A    between atoms: _333  and  _335
REMARK  130  A    between atoms: _335  and  _336
REMARK  131  A    between atoms: _335  and  _338
REMARK  132  A    between atoms: _338  and  _339
REMARK  133  A    between atoms: _342  and  _344
REMARK  134  A    between atoms: _344  and  _345
REMARK  135  A    between atoms: _344  and  _347
REMARK  136  A    between atoms: _347  and  _348
REMARK  137  A    between atoms: _348  and  _349
REMARK  138  A    between atoms: _352  and  _354
REMARK  139  A    between atoms: _354  and  _355
REMARK  140  A    between atoms: _358  and  _360
REMARK  141  A    between atoms: _360  and  _361
REMARK  142  A    between atoms: _360  and  _363
REMARK  143  A    between atoms: _363  and  _364
REMARK  144  A    between atoms: _367  and  _369
REMARK  145  A    between atoms: _369  and  _370
REMARK  146  A    between atoms: _369  and  _372
REMARK  147  A    between atoms: _372  and  _373
REMARK  148  A    between atoms: _373  and  _374
REMARK  149  A    between atoms: _377  and  _379
REMARK  150  A    between atoms: _379  and  _380
REMARK  151  A    between atoms: _379  and  _382
REMARK  152  A    between atoms: _382  and  _383
REMARK  153  A    between atoms: _383  and  _384
REMARK  154  A    between atoms: _384  and  _385
REMARK  155  A    between atoms: _394  and  _396
REMARK  156  A    between atoms: _396  and  _397
REMARK  157  A    between atoms: _396  and  _399
REMARK  158  A    between atoms: _399  and  _400
REMARK  159  A    between atoms: _410  and  _412
REMARK  160  A    between atoms: _412  and  _413
REMARK  161  A    between atoms: _412  and  _415
REMARK  162  A    between atoms: _415  and  _416
REMARK  163  A    between atoms: _421  and  _423
REMARK  164  A    between atoms: _423  and  _424
REMARK  165  A    between atoms: _426  and  _428
REMARK  166  A    between atoms: _428  and  _429
REMARK  167  A    between atoms: _428  and  _431
REMARK  168  A    between atoms: _434  and  _436
REMARK  169  A    between atoms: _436  and  _437
REMARK  170  A    between atoms: _440  and  _442
REMARK  171  A    between atoms: _442  and  _443
REMARK  172  A    between atoms: _442  and  _445
REMARK  173  A    between atoms: _445  and  _446
REMARK  174  A    between atoms: _451  and  _453
REMARK  175  A    between atoms: _453  and  _454
REMARK  176  A    between atoms: _453  and  _456
REMARK  177  A    between atoms: _456  and  _457
REMARK  178  A    between atoms: _457  and  _458
REMARK  179  A    between atoms: _458  and  _459
REMARK  180  A    between atoms: _459  and  _460
REMARK  181  A    between atoms: _464  and  _466
REMARK  182  A    between atoms: _466  and  _467
REMARK  183  A    between atoms: _466  and  _469
REMARK  184  A    between atoms: _469  and  _470
REMARK  185  A    between atoms: _475  and  _477
REMARK  186  A    between atoms: _477  and  _478
REMARK  187  A    between atoms: _480  and  _482
REMARK  188  A    between atoms: _482  and  _483
REMARK  189  A    between atoms: _482  and  _485
REMARK  190  A    between atoms: _485  and  _486
REMARK  191  A    between atoms: _486  and  _487
REMARK  192  A    between atoms: _487  and  _488
REMARK  193  A    between atoms: _488  and  _489
REMARK  194  A    between atoms: _493  and  _495
REMARK  195  A    between atoms: _495  and  _496
REMARK  196  A    between atoms: _495  and  _498
REMARK  197  A    between atoms: _498  and  _499
REMARK  198  A    between atoms: _499  and  _500
REMARK  199  A    between atoms: _500  and  _501
REMARK  200  A    between atoms: _510  and  _512
REMARK  201  A    between atoms: _512  and  _513
REMARK  202  A    between atoms: _512  and  _515
REMARK  203  A    between atoms: _515  and  _516
REMARK  204  A    between atoms: _521  and  _522
REMARK  205  A    between atoms: _524  and  _526
REMARK  206  A    between atoms: _526  and  _527
REMARK  207  A    between atoms: _526  and  _529
REMARK  208  A    between atoms: _529  and  _530
REMARK  209  A    between atoms: _530  and  _531
REMARK  210  A    between atoms: _531  and  _532
REMARK  211  A    between atoms: _532  and  _533
REMARK  212  A    between atoms: _537  and  _539
REMARK  213  A    between atoms: _539  and  _540
REMARK  214  A    between atoms: _539  and  _542
REMARK  215  A    between atoms: _542  and  _543
REMARK  216  A    between atoms: _545  and  _547
REMARK  217  A    between atoms: _547  and  _548
REMARK  218  A    between atoms: _547  and  _550
REMARK  219  A    between atoms: _550  and  _551
REMARK  220  A    between atoms: _554  and  _556
REMARK  221  A    between atoms: _556  and  _557
REMARK  222  A    between atoms: _556  and  _559
REMARK  223  A    between atoms: _559  and  _560
REMARK  224  A    between atoms: _560  and  _561
REMARK  225  A    between atoms: _564  and  _566
REMARK  226  A    between atoms: _566  and  _567
REMARK  227  A    between atoms: _570  and  _572
REMARK  228  A    between atoms: _572  and  _573
REMARK  229  A    between atoms: _572  and  _575
REMARK  230  A    between atoms: _575  and  _576
REMARK  231  A    between atoms: _578  and  _580
REMARK  232  A    between atoms: _580  and  _581
REMARK  233  A    between atoms: _583  and  _585
REMARK  234  A    between atoms: _585  and  _586
REMARK  235  A    between atoms: _585  and  _588
REMARK  236  A    between atoms: _588  and  _589
REMARK  237  A    between atoms: _592  and  _594
REMARK  238  A    between atoms: _594  and  _595
REMARK  239  A    between atoms: _597  and  _599
REMARK  240  A    between atoms: _599  and  _600
REMARK  241  A    between atoms: _599  and  _602
REMARK  242  A    between atoms: _602  and  _603
REMARK  243  A    between atoms: _608  and  _610
REMARK  244  A    between atoms: _610  and  _611
REMARK  245  A    between atoms: _610  and  _613
REMARK  246  A    between atoms: _613  and  _614
REMARK  247  A    between atoms: _614  and  _615
REMARK  248  A    between atoms: _622  and  _623
REMARK  249  A    between atoms: _623  and  _639
REMARK  250  A    between atoms: _624  and  _626
REMARK  251  A    between atoms: _626  and  _627
REMARK  252  A    between atoms: _627  and  _628
REMARK  253  A    between atoms: _632  and  _634
REMARK  254  A    between atoms: _634  and  _635
REMARK  255  A    between atoms: _634  and  _642
REMARK  256  A    between atoms: _635  and  _636
REMARK  257  A    between atoms: _636  and  _637
REMARK  258  A    between atoms: _637  and  _638
REMARK  259  A    between atoms: _638  and  _639
REMARK  260  A    between atoms: _644  and  _646
REMARK  261  A    between atoms: _646  and  _647
REMARK  262  A    between atoms: _646  and  _649
REMARK  263  A    between atoms: _649  and  _650
REMARK  264  A    between atoms: _653  and  _655
REMARK  265  A    between atoms: _655  and  _656
REMARK  266  A    between atoms: _658  and  _660
REMARK  267  A    between atoms: _660  and  _661
REMARK  268  A    between atoms: _664  and  _666
REMARK  269  A    between atoms: _666  and  _667
REMARK  270  A    between atoms: _666  and  _669
REMARK  271  A    between atoms: _669  and  _670
REMARK  272  A    between atoms: _675  and  _676
REMARK                            x       y       z     vdW  Elec       q    Type
REMARK                         _______ _______ _______ _____ _____    ______ ____
ROOT
ATOM      1  O   HOH     1      29.697  26.101  18.375  0.00  0.00    +0.000 OA
ENDROOT
TORSDOF 0
REMARK  Name = ../refined-set-2016/3l7a/3l7a_pocket.pdb
REMARK  272 active torsions:
REMARK  status: ('A' for Active; 'I' for Inactive)
REMARK    1  A    between atoms: _1  and  _3
REMARK    2  A    between atoms: _3  and  _4
REMARK    3  A    between atoms: _3  and  _6
REMARK    4  A    between atoms: _6  and  _7
REMARK    5  A    between atoms: _12  and  _13
REMARK    6  A    between atoms: _15  and  _17
REMARK    7  A    between atoms: _17  and  _18
REMARK    8  A    between atoms: _17  and  _20
REMARK    9  A    between atoms: _20  and  _21
REMARK   10  A    between atoms: _24  and  _26
REMARK   11  A    between atoms: _26  and  _27
REMARK   12  A    between atoms: _26  and  _29
REMARK   13  A    between atoms: _29  and  _30
REMARK   14  A    between atoms: _30  and  _31
REMARK   15  A    between atoms: _34  and  _36
REMARK   16  A    between atoms: _36  and  _37
REMARK   17  A    between atoms: _36  and  _39
REMARK   18  A    between atoms: _39  and  _40
REMARK   19  A    between atoms: _45  and  _46
REMARK   20  A    between atoms: _48  and  _50
REMARK   21  A    between atoms: _50  and  _51
REMARK   22  A    between atoms: _50  and  _53
REMARK   23  A    between atoms: _53  and  _54
REMARK   24  A    between atoms: _59  and  _61
REMARK   25  A    between atoms: _61  and  _62
REMARK   26  A    between atoms: _64  and  _66
REMARK   27  A    between atoms: _66  and  _67
REMARK   28  A    between atoms: _69  and  _71
REMARK   29  A    between atoms: _71  and  _72
REMARK   30  A    between atoms: _71  and  _74
REMARK   31  A    between atoms: _74  and  _75
REMARK   32  A    between atoms: _78  and  _80
REMARK   33  A    between atoms: _80  and  _81
REMARK   34  A    between atoms: _83  and  _85
REMARK   35  A    between atoms: _85  and  _86
REMARK   36  A    between atoms: _85  and  _88
REMARK   37  A    between atoms: _88  and  _89
REMARK   38  A    between atoms: _89  and  _90
REMARK   39  A    between atoms: _90  and  _91
REMARK   40  A    between atoms: _100  and  _102
REMARK   41  A    between atoms: _102  and  _103
REMARK   42  A    between atoms: _102  and  _105
REMARK   43  A    between atoms: _105  and  _106
REMARK   44  A    between atoms: _109  and  _111
REMARK   45  A    between atoms: _111  and  _112
REMARK   46  A    between atoms: _115  and  _117
REMARK   47  A    between atoms: _117  and  _118
REMARK   48  A    between atoms: _117  and  _120
REMARK   49  A    between atoms: _120  and  _121
REMARK   50  A    between atoms: _127  and  _129
REMARK   51  A    between atoms: _129  and  _130
REMARK   52  A    between atoms: _129  and  _132
REMARK   53  A    between atoms: _132  and  _133
REMARK   54  A    between atoms: _138  and  _139
REMARK   55  A    between atoms: _142  and  _143
REMARK   56  A    between atoms: _148  and  _150
REMARK   57  A    between atoms: _150  and  _151
REMARK   58  A    between atoms: _150  and  _153
REMARK   59  A    between atoms: _153  and  _154
REMARK   60  A    between atoms: _159  and  _161
REMARK   61  A    between atoms: _161  and  _162
REMARK   62  A    between atoms: _161  and  _164
REMARK   63  A    between atoms: _164  and  _165
REMARK   64  A    between atoms: _168  and  _170
REMARK   65  A    between atoms: _170  and  _171
REMARK   66  A    between atoms: _170  and  _173
REMARK   67  A    between atoms: _173  and  _174
REMARK   68  A    between atoms: _179  and  _181
REMARK   69  A    between atoms: _181  and  _182
REMARK   70  A    between atoms: _181  and  _184
REMARK   71  A    between atoms: _184  and  _185
REMARK   72  A    between atoms: _191  and  _193
REMARK   73  A    between atoms: _193  and  _194
REMARK   74  A    between atoms: _193  and  _196
REMARK   75  A    between atoms: _196  and  _197
REMARK   76  A    between atoms: _203  and  _205
REMARK   77  A    between atoms: _205  and  _206
REMARK   78  A    between atoms: _205  and  _208
REMARK   79  A    between atoms: _208  and  _209
REMARK   80  A    between atoms: _209  and  _210
REMARK   81  A    between atoms: _213  and  _215
REMARK   82  A    between atoms: _215  and  _216
REMARK   83  A    between atoms: _218  and  _220
REMARK   84  A    between atoms: _220  and  _221
REMARK   85  A    between atoms: _220  and  _223
REMARK   86  A    between atoms: _223  and  _224
REMARK   87  A    between atoms: _224  and  _225
REMARK   88  A    between atoms: _225  and  _226
REMARK   89  A    between atoms: _235  and  _237
REMARK   90  A    between atoms: _237  and  _238
REMARK   91  A    between atoms: _237  and  _240
REMARK   92  A    between atoms: _240  and  _241
REMARK   93  A    between atoms: _241  and  _242
REMARK   94  A    between atoms: _245  and  _247
REMARK   95  A    between atoms: _247  and  _248
REMARK   96  A    between atoms: _247  and  _250
REMARK   97  A    between atoms: _250  and  _251
REMARK   98  A    between atoms: _256  and  _258
REMARK   99  A    between atoms: _258  and  _259
REMARK  100  A    between atoms: _258  and  _261
REMARK  101  A    between atoms: _261  and  _262
REMARK  102  A    between atoms: _265  and  _267
REMARK  103  A    between atoms: _267  and  _268
REMARK  104  A    between atoms: _267  and  _270
REMARK  105  A    between atoms: _270  and  _271
REMARK  106  A    between atoms: _274  and  _276
REMARK  107  A    between atoms: _276  and  _277
REMARK  108  A    between atoms: _276  and  _279
REMARK  109  A    between atoms: _279  and  _280
REMARK  110  A    between atoms: _285  and  _287
REMARK  111  A    between atoms: _287  and  _288
REMARK  112  A    between atoms: _287  and  _290
REMARK  113  A    between atoms: _290  and  _291
REMARK  114  A    between atoms: _294  and  _296
REMARK  115  A    between atoms: _296  and  _297
REMARK  116  A    between atoms: _296  and  _299
REMARK  117  A    between atoms: _299  and  _300
REMARK  118  A    between atoms: _305  and  _307
REMARK  119  A    between atoms: _307  and  _308
REMARK  120  A    between atoms: _307  and  _310
REMARK  121  A    between atoms: _310  and  _311
REMARK  122  A    between atoms: _316  and  _318
REMARK  123  A    between atoms: _318  and  _319
REMARK  124  A    between atoms: _318  and  _321
REMARK  125  A    between atoms: _321  and  _322
REMARK  126  A    between atoms: _325  and  _327
REMARK  127  A    between atoms: _327  and  _328
REMARK  128  A    between atoms: _327  and  _330
REMARK  129  A    between atoms: _333  and  _335
REMARK  130  A    between atoms: _335  and  _336
REMARK  131  A    between atoms: _335  and  _338
REMARK  132  A    between atoms: _338  and  _339
REMARK  133  A    between atoms: _342  and  _344
REMARK  134  A    between atoms: _344  and  _345
REMARK  135  A    between atoms: _344  and  _347
REMARK  136  A    between atoms: _347  and  _348
REMARK  137  A    between atoms: _348  and  _349
REMARK  138  A    between atoms: _352  and  _354
REMARK  139  A    between atoms: _354  and  _355
REMARK  140  A    between atoms: _358  and  _360
REMARK  141  A    between atoms: _360  and  _361
REMARK  142  A    between atoms: _360  and  _363
REMARK  143  A    between atoms: _363  and  _364
REMARK  144  A    between atoms: _367  and  _369
REMARK  145  A    between atoms: _369  and  _370
REMARK  146  A    between atoms: _369  and  _372
REMARK  147  A    between atoms: _372  and  _373
REMARK  148  A    between atoms: _373  and  _374
REMARK  149  A    between atoms: _377  and  _379
REMARK  150  A    between atoms: _379  and  _380
REMARK  151  A    between atoms: _379  and  _382
REMARK  152  A    between atoms: _382  and  _383
REMARK  153  A    between atoms: _383  and  _384
REMARK  154  A    between atoms: _384  and  _385
REMARK  155  A    between atoms: _394  and  _396
REMARK  156  A    between atoms: _396  and  _397
REMARK  157  A    between atoms: _396  and  _399
REMARK  158  A    between atoms: _399  and  _400
REMARK  159  A    between atoms: _410  and  _412
REMARK  160  A    between atoms: _412  and  _413
REMARK  161  A    between atoms: _412  and  _415
REMARK  162  A    between atoms: _415  and  _416
REMARK  163  A    between atoms: _421  and  _423
REMARK  164  A    between atoms: _423  and  _424
REMARK  165  A    between atoms: _426  and  _428
REMARK  166  A    between atoms: _428  and  _429
REMARK  167  A    between atoms: _428  and  _431
REMARK  168  A    between atoms: _434  and  _436
REMARK  169  A    between atoms: _436  and  _437
REMARK  170  A    between atoms: _440  and  _442
REMARK  171  A    between atoms: _442  and  _443
REMARK  172  A    between atoms: _442  and  _445
REMARK  173  A    between atoms: _445  and  _446
REMARK  174  A    between atoms: _451  and  _453
REMARK  175  A    between atoms: _453  and  _454
REMARK  176  A    between atoms: _453  and  _456
REMARK  177  A    between atoms: _456  and  _457
REMARK  178  A    between atoms: _457  and  _458
REMARK  179  A    between atoms: _458  and  _459
REMARK  180  A    between atoms: _459  and  _460
REMARK  181  A    between atoms: _464  and  _466
REMARK  182  A    between atoms: _466  and  _467
REMARK  183  A    between atoms: _466  and  _469
REMARK  184  A    between atoms: _469  and  _470
REMARK  185  A    between atoms: _475  and  _477
REMARK  186  A    between atoms: _477  and  _478
REMARK  187  A    between atoms: _480  and  _482
REMARK  188  A    between atoms: _482  and  _483
REMARK  189  A    between atoms: _482  and  _485
REMARK  190  A    between atoms: _485  and  _486
REMARK  191  A    between atoms: _486  and  _487
REMARK  192  A    between atoms: _487  and  _488
REMARK  193  A    between atoms: _488  and  _489
REMARK  194  A    between atoms: _493  and  _495
REMARK  195  A    between atoms: _495  and  _496
REMARK  196  A    between atoms: _495  and  _498
REMARK  197  A    between atoms: _498  and  _499
REMARK  198  A    between atoms: _499  and  _500
REMARK  199  A    between atoms: _500  and  _501
REMARK  200  A    between atoms: _510  and  _512
REMARK  201  A    between atoms: _512  and  _513
REMARK  202  A    between atoms: _512  and  _515
REMARK  203  A    between atoms: _515  and  _516
REMARK  204  A    between atoms: _521  and  _522
REMARK  205  A    between atoms: _524  and  _526
REMARK  206  A    between atoms: _526  and  _527
REMARK  207  A    between atoms: _526  and  _529
REMARK  208  A    between atoms: _529  and  _530
REMARK  209  A    between atoms: _530  and  _531
REMARK  210  A    between atoms: _531  and  _532
REMARK  211  A    between atoms: _532  and  _533
REMARK  212  A    between atoms: _537  and  _539
REMARK  213  A    between atoms: _539  and  _540
REMARK  214  A    between atoms: _539  and  _542
REMARK  215  A    between atoms: _542  and  _543
REMARK  216  A    between atoms: _545  and  _547
REMARK  217  A    between atoms: _547  and  _548
REMARK  218  A    between atoms: _547  and  _550
REMARK  219  A    between atoms: _550  and  _551
REMARK  220  A    between atoms: _554  and  _556
REMARK  221  A    between atoms: _556  and  _557
REMARK  222  A    between atoms: _556  and  _559
REMARK  223  A    between atoms: _559  and  _560
REMARK  224  A    between atoms: _560  and  _561
REMARK  225  A    between atoms: _564  and  _566
REMARK  226  A    between atoms: _566  and  _567
REMARK  227  A    between atoms: _570  and  _572
REMARK  228  A    between atoms: _572  and  _573
REMARK  229  A    between atoms: _572  and  _575
REMARK  230  A    between atoms: _575  and  _576
REMARK  231  A    between atoms: _578  and  _580
REMARK  232  A    between atoms: _580  and  _581
REMARK  233  A    between atoms: _583  and  _585
REMARK  234  A    between atoms: _585  and  _586
REMARK  235  A    between atoms: _585  and  _588
REMARK  236  A    between atoms: _588  and  _589
REMARK  237  A    between atoms: _592  and  _594
REMARK  238  A    between atoms: _594  and  _595
REMARK  239  A    between atoms: _597  and  _599
REMARK  240  A    between atoms: _599  and  _600
REMARK  241  A    between atoms: _599  and  _602
REMARK  242  A    between atoms: _602  and  _603
REMARK  243  A    between atoms: _608  and  _610
REMARK  244  A    between atoms: _610  and  _611
REMARK  245  A    between atoms: _610  and  _613
REMARK  246  A    between atoms: _613  and  _614
REMARK  247  A    between atoms: _614  and  _615
REMARK  248  A    between atoms: _622  and  _623
REMARK  249  A    between atoms: _623  and  _639
REMARK  250  A    between atoms: _624  and  _626
REMARK  251  A    between atoms: _626  and  _627
REMARK  252  A    between atoms: _627  and  _628
REMARK  253  A    between atoms: _632  and  _634
REMARK  254  A    between atoms: _634  and  _635
REMARK  255  A    between atoms: _634  and  _642
REMARK  256  A    between atoms: _635  and  _636
REMARK  257  A    between atoms: _636  and  _637
REMARK  258  A    between atoms: _637  and  _638
REMARK  259  A    between atoms: _638  and  _639
REMARK  260  A    between atoms: _644  and  _646
REMARK  261  A    between atoms: _646  and  _647
REMARK  262  A    between atoms: _646  and  _649
REMARK  263  A    between atoms: _649  and  _650
REMARK  264  A    between atoms: _653  and  _655
REMARK  265  A    between atoms: _655  and  _656
REMARK  266  A    between atoms: _658  and  _660
REMARK  267  A    between atoms: _660  and  _661
REMARK  268  A    between atoms: _664  and  _666
REMARK  269  A    between atoms: _666  and  _667
REMARK  270  A    between atoms: _666  and  _669
REMARK  271  A    between atoms: _669  and  _670
REMARK  272  A    between atoms: _675  and  _676
REMARK                            x       y       z     vdW  Elec       q    Type
REMARK                         _______ _______ _______ _____ _____    ______ ____
ROOT
ATOM      1  O   HOH     1      30.642  23.137  18.406  0.00  0.00    +0.000 OA
ENDROOT
TORSDOF 0
REMARK  Name = ../refined-set-2016/3l7a/3l7a_pocket.pdb
REMARK  272 active torsions:
REMARK  status: ('A' for Active; 'I' for Inactive)
REMARK    1  A    between atoms: _1  and  _3
REMARK    2  A    between atoms: _3  and  _4
REMARK    3  A    between atoms: _3  and  _6
REMARK    4  A    between atoms: _6  and  _7
REMARK    5  A    between atoms: _12  and  _13
REMARK    6  A    between atoms: _15  and  _17
REMARK    7  A    between atoms: _17  and  _18
REMARK    8  A    between atoms: _17  and  _20
REMARK    9  A    between atoms: _20  and  _21
REMARK   10  A    between atoms: _24  and  _26
REMARK   11  A    between atoms: _26  and  _27
REMARK   12  A    between atoms: _26  and  _29
REMARK   13  A    between atoms: _29  and  _30
REMARK   14  A    between atoms: _30  and  _31
REMARK   15  A    between atoms: _34  and  _36
REMARK   16  A    between atoms: _36  and  _37
REMARK   17  A    between atoms: _36  and  _39
REMARK   18  A    between atoms: _39  and  _40
REMARK   19  A    between atoms: _45  and  _46
REMARK   20  A    between atoms: _48  and  _50
REMARK   21  A    between atoms: _50  and  _51
REMARK   22  A    between atoms: _50  and  _53
REMARK   23  A    between atoms: _53  and  _54
REMARK   24  A    between atoms: _59  and  _61
REMARK   25  A    between atoms: _61  and  _62
REMARK   26  A    between atoms: _64  and  _66
REMARK   27  A    between atoms: _66  and  _67
REMARK   28  A    between atoms: _69  and  _71
REMARK   29  A    between atoms: _71  and  _72
REMARK   30  A    between atoms: _71  and  _74
REMARK   31  A    between atoms: _74  and  _75
REMARK   32  A    between atoms: _78  and  _80
REMARK   33  A    between atoms: _80  and  _81
REMARK   34  A    between atoms: _83  and  _85
REMARK   35  A    between atoms: _85  and  _86
REMARK   36  A    between atoms: _85  and  _88
REMARK   37  A    between atoms: _88  and  _89
REMARK   38  A    between atoms: _89  and  _90
REMARK   39  A    between atoms: _90  and  _91
REMARK   40  A    between atoms: _100  and  _102
REMARK   41  A    between atoms: _102  and  _103
REMARK   42  A    between atoms: _102  and  _105
REMARK   43  A    between atoms: _105  and  _106
REMARK   44  A    between atoms: _109  and  _111
REMARK   45  A    between atoms: _111  and  _112
REMARK   46  A    between atoms: _115  and  _117
REMARK   47  A    between atoms: _117  and  _118
REMARK   48  A    between atoms: _117  and  _120
REMARK   49  A    between atoms: _120  and  _121
REMARK   50  A    between atoms: _127  and  _129
REMARK   51  A    between atoms: _129  and  _130
REMARK   52  A    between atoms: _129  and  _132
REMARK   53  A    between atoms: _132  and  _133
REMARK   54  A    between atoms: _138  and  _139
REMARK   55  A    between atoms: _142  and  _143
REMARK   56  A    between atoms: _148  and  _150
REMARK   57  A    between atoms: _150  and  _151
REMARK   58  A    between atoms: _150  and  _153
REMARK   59  A    between atoms: _153  and  _154
REMARK   60  A    between atoms: _159  and  _161
REMARK   61  A    between atoms: _161  and  _162
REMARK   62  A    between atoms: _161  and  _164
REMARK   63  A    between atoms: _164  and  _165
REMARK   64  A    between atoms: _168  and  _170
REMARK   65  A    between atoms: _170  and  _171
REMARK   66  A    between atoms: _170  and  _173
REMARK   67  A    between atoms: _173  and  _174
REMARK   68  A    between atoms: _179  and  _181
REMARK   69  A    between atoms: _181  and  _182
REMARK   70  A    between atoms: _181  and  _184
REMARK   71  A    between atoms: _184  and  _185
REMARK   72  A    between atoms: _191  and  _193
REMARK   73  A    between atoms: _193  and  _194
REMARK   74  A    between atoms: _193  and  _196
REMARK   75  A    between atoms: _196  and  _197
REMARK   76  A    between atoms: _203  and  _205
REMARK   77  A    between atoms: _205  and  _206
REMARK   78  A    between atoms: _205  and  _208
REMARK   79  A    between atoms: _208  and  _209
REMARK   80  A    between atoms: _209  and  _210
REMARK   81  A    between atoms: _213  and  _215
REMARK   82  A    between atoms: _215  and  _216
REMARK   83  A    between atoms: _218  and  _220
REMARK   84  A    between atoms: _220  and  _221
REMARK   85  A    between atoms: _220  and  _223
REMARK   86  A    between atoms: _223  and  _224
REMARK   87  A    between atoms: _224  and  _225
REMARK   88  A    between atoms: _225  and  _226
REMARK   89  A    between atoms: _235  and  _237
REMARK   90  A    between atoms: _237  and  _238
REMARK   91  A    between atoms: _237  and  _240
REMARK   92  A    between atoms: _240  and  _241
REMARK   93  A    between atoms: _241  and  _242
REMARK   94  A    between atoms: _245  and  _247
REMARK   95  A    between atoms: _247  and  _248
REMARK   96  A    between atoms: _247  and  _250
REMARK   97  A    between atoms: _250  and  _251
REMARK   98  A    between atoms: _256  and  _258
REMARK   99  A    between atoms: _258  and  _259
REMARK  100  A    between atoms: _258  and  _261
REMARK  101  A    between atoms: _261  and  _262
REMARK  102  A    between atoms: _265  and  _267
REMARK  103  A    between atoms: _267  and  _268
REMARK  104  A    between atoms: _267  and  _270
REMARK  105  A    between atoms: _270  and  _271
REMARK  106  A    between atoms: _274  and  _276
REMARK  107  A    between atoms: _276  and  _277
REMARK  108  A    between atoms: _276  and  _279
REMARK  109  A    between atoms: _279  and  _280
REMARK  110  A    between atoms: _285  and  _287
REMARK  111  A    between atoms: _287  and  _288
REMARK  112  A    between atoms: _287  and  _290
REMARK  113  A    between atoms: _290  and  _291
REMARK  114  A    between atoms: _294  and  _296
REMARK  115  A    between atoms: _296  and  _297
REMARK  116  A    between atoms: _296  and  _299
REMARK  117  A    between atoms: _299  and  _300
REMARK  118  A    between atoms: _305  and  _307
REMARK  119  A    between atoms: _307  and  _308
REMARK  120  A    between atoms: _307  and  _310
REMARK  121  A    between atoms: _310  and  _311
REMARK  122  A    between atoms: _316  and  _318
REMARK  123  A    between atoms: _318  and  _319
REMARK  124  A    between atoms: _318  and  _321
REMARK  125  A    between atoms: _321  and  _322
REMARK  126  A    between atoms: _325  and  _327
REMARK  127  A    between atoms: _327  and  _328
REMARK  128  A    between atoms: _327  and  _330
REMARK  129  A    between atoms: _333  and  _335
REMARK  130  A    between atoms: _335  and  _336
REMARK  131  A    between atoms: _335  and  _338
REMARK  132  A    between atoms: _338  and  _339
REMARK  133  A    between atoms: _342  and  _344
REMARK  134  A    between atoms: _344  and  _345
REMARK  135  A    between atoms: _344  and  _347
REMARK  136  A    between atoms: _347  and  _348
REMARK  137  A    between atoms: _348  and  _349
REMARK  138  A    between atoms: _352  and  _354
REMARK  139  A    between atoms: _354  and  _355
REMARK  140  A    between atoms: _358  and  _360
REMARK  141  A    between atoms: _360  and  _361
REMARK  142  A    between atoms: _360  and  _363
REMARK  143  A    between atoms: _363  and  _364
REMARK  144  A    between atoms: _367  and  _369
REMARK  145  A    between atoms: _369  and  _370
REMARK  146  A    between atoms: _369  and  _372
REMARK  147  A    between atoms: _372  and  _373
REMARK  148  A    between atoms: _373  and  _374
REMARK  149  A    between atoms: _377  and  _379
REMARK  150  A    between atoms: _379  and  _380
REMARK  151  A    between atoms: _379  and  _382
REMARK  152  A    between atoms: _382  and  _383
REMARK  153  A    between atoms: _383  and  _384
REMARK  154  A    between atoms: _384  and  _385
REMARK  155  A    between atoms: _394  and  _396
REMARK  156  A    between atoms: _396  and  _397
REMARK  157  A    between atoms: _396  and  _399
REMARK  158  A    between atoms: _399  and  _400
REMARK  159  A    between atoms: _410  and  _412
REMARK  160  A    between atoms: _412  and  _413
REMARK  161  A    between atoms: _412  and  _415
REMARK  162  A    between atoms: _415  and  _416
REMARK  163  A    between atoms: _421  and  _423
REMARK  164  A    between atoms: _423  and  _424
REMARK  165  A    between atoms: _426  and  _428
REMARK  166  A    between atoms: _428  and  _429
REMARK  167  A    between atoms: _428  and  _431
REMARK  168  A    between atoms: _434  and  _436
REMARK  169  A    between atoms: _436  and  _437
REMARK  170  A    between atoms: _440  and  _442
REMARK  171  A    between atoms: _442  and  _443
REMARK  172  A    between atoms: _442  and  _445
REMARK  173  A    between atoms: _445  and  _446
REMARK  174  A    between atoms: _451  and  _453
REMARK  175  A    between atoms: _453  and  _454
REMARK  176  A    between atoms: _453  and  _456
REMARK  177  A    between atoms: _456  and  _457
REMARK  178  A    between atoms: _457  and  _458
REMARK  179  A    between atoms: _458  and  _459
REMARK  180  A    between atoms: _459  and  _460
REMARK  181  A    between atoms: _464  and  _466
REMARK  182  A    between atoms: _466  and  _467
REMARK  183  A    between atoms: _466  and  _469
REMARK  184  A    between atoms: _469  and  _470
REMARK  185  A    between atoms: _475  and  _477
REMARK  186  A    between atoms: _477  and  _478
REMARK  187  A    between atoms: _480  and  _482
REMARK  188  A    between atoms: _482  and  _483
REMARK  189  A    between atoms: _482  and  _485
REMARK  190  A    between atoms: _485  and  _486
REMARK  191  A    between atoms: _486  and  _487
REMARK  192  A    between atoms: _487  and  _488
REMARK  193  A    between atoms: _488  and  _489
REMARK  194  A    between atoms: _493  and  _495
REMARK  195  A    between atoms: _495  and  _496
REMARK  196  A    between atoms: _495  and  _498
REMARK  197  A    between atoms: _498  and  _499
REMARK  198  A    between atoms: _499  and  _500
REMARK  199  A    between atoms: _500  and  _501
REMARK  200  A    between atoms: _510  and  _512
REMARK  201  A    between atoms: _512  and  _513
REMARK  202  A    between atoms: _512  and  _515
REMARK  203  A    between atoms: _515  and  _516
REMARK  204  A    between atoms: _521  and  _522
REMARK  205  A    between atoms: _524  and  _526
REMARK  206  A    between atoms: _526  and  _527
REMARK  207  A    between atoms: _526  and  _529
REMARK  208  A    between atoms: _529  and  _530
REMARK  209  A    between atoms: _530  and  _531
REMARK  210  A    between atoms: _531  and  _532
REMARK  211  A    between atoms: _532  and  _533
REMARK  212  A    between atoms: _537  and  _539
REMARK  213  A    between atoms: _539  and  _540
REMARK  214  A    between atoms: _539  and  _542
REMARK  215  A    between atoms: _542  and  _543
REMARK  216  A    between atoms: _545  and  _547
REMARK  217  A    between atoms: _547  and  _548
REMARK  218  A    between atoms: _547  and  _550
REMARK  219  A    between atoms: _550  and  _551
REMARK  220  A    between atoms: _554  and  _556
REMARK  221  A    between atoms: _556  and  _557
REMARK  222  A    between atoms: _556  and  _559
REMARK  223  A    between atoms: _559  and  _560
REMARK  224  A    between atoms: _560  and  _561
REMARK  225  A    between atoms: _564  and  _566
REMARK  226  A    between atoms: _566  and  _567
REMARK  227  A    between atoms: _570  and  _572
REMARK  228  A    between atoms: _572  and  _573
REMARK  229  A    between atoms: _572  and  _575
REMARK  230  A    between atoms: _575  and  _576
REMARK  231  A    between atoms: _578  and  _580
REMARK  232  A    between atoms: _580  and  _581
REMARK  233  A    between atoms: _583  and  _585
REMARK  234  A    between atoms: _585  and  _586
REMARK  235  A    between atoms: _585  and  _588
REMARK  236  A    between atoms: _588  and  _589
REMARK  237  A    between atoms: _592  and  _594
REMARK  238  A    between atoms: _594  and  _595
REMARK  239  A    between atoms: _597  and  _599
REMARK  240  A    between atoms: _599  and  _600
REMARK  241  A    between atoms: _599  and  _602
REMARK  242  A    between atoms: _602  and  _603
REMARK  243  A    between atoms: _608  and  _610
REMARK  244  A    between atoms: _610  and  _611
REMARK  245  A    between atoms: _610  and  _613
REMARK  246  A    between atoms: _613  and  _614
REMARK  247  A    between atoms: _614  and  _615
REMARK  248  A    between atoms: _622  and  _623
REMARK  249  A    between atoms: _623  and  _639
REMARK  250  A    between atoms: _624  and  _626
REMARK  251  A    between atoms: _626  and  _627
REMARK  252  A    between atoms: _627  and  _628
REMARK  253  A    between atoms: _632  and  _634
REMARK  254  A    between atoms: _634  and  _635
REMARK  255  A    between atoms: _634  and  _642
REMARK  256  A    between atoms: _635  and  _636
REMARK  257  A    between atoms: _636  and  _637
REMARK  258  A    between atoms: _637  and  _638
REMARK  259  A    between atoms: _638  and  _639
REMARK  260  A    between atoms: _644  and  _646
REMARK  261  A    between atoms: _646  and  _647
REMARK  262  A    between atoms: _646  and  _649
REMARK  263  A    between atoms: _649  and  _650
REMARK  264  A    between atoms: _653  and  _655
REMARK  265  A    between atoms: _655  and  _656
REMARK  266  A    between atoms: _658  and  _660
REMARK  267  A    between atoms: _660  and  _661
REMARK  268  A    between atoms: _664  and  _666
REMARK  269  A    between atoms: _666  and  _667
REMARK  270  A    between atoms: _666  and  _669
REMARK  271  A    between atoms: _669  and  _670
REMARK  272  A    between atoms: _675  and  _676
REMARK                            x       y       z     vdW  Elec       q    Type
REMARK                         _______ _______ _______ _____ _____    ______ ____
ROOT
ATOM      1  O   HOH     1      27.286  19.190  28.981  0.00  0.00    +0.000 OA
ENDROOT
TORSDOF 0
REMARK  Name = ../refined-set-2016/3l7a/3l7a_pocket.pdb
REMARK  272 active torsions:
REMARK  status: ('A' for Active; 'I' for Inactive)
REMARK    1  A    between atoms: _1  and  _3
REMARK    2  A    between atoms: _3  and  _4
REMARK    3  A    between atoms: _3  and  _6
REMARK    4  A    between atoms: _6  and  _7
REMARK    5  A    between atoms: _12  and  _13
REMARK    6  A    between atoms: _15  and  _17
REMARK    7  A    between atoms: _17  and  _18
REMARK    8  A    between atoms: _17  and  _20
REMARK    9  A    between atoms: _20  and  _21
REMARK   10  A    between atoms: _24  and  _26
REMARK   11  A    between atoms: _26  and  _27
REMARK   12  A    between atoms: _26  and  _29
REMARK   13  A    between atoms: _29  and  _30
REMARK   14  A    between atoms: _30  and  _31
REMARK   15  A    between atoms: _34  and  _36
REMARK   16  A    between atoms: _36  and  _37
REMARK   17  A    between atoms: _36  and  _39
REMARK   18  A    between atoms: _39  and  _40
REMARK   19  A    between atoms: _45  and  _46
REMARK   20  A    between atoms: _48  and  _50
REMARK   21  A    between atoms: _50  and  _51
REMARK   22  A    between atoms: _50  and  _53
REMARK   23  A    between atoms: _53  and  _54
REMARK   24  A    between atoms: _59  and  _61
REMARK   25  A    between atoms: _61  and  _62
REMARK   26  A    between atoms: _64  and  _66
REMARK   27  A    between atoms: _66  and  _67
REMARK   28  A    between atoms: _69  and  _71
REMARK   29  A    between atoms: _71  and  _72
REMARK   30  A    between atoms: _71  and  _74
REMARK   31  A    between atoms: _74  and  _75
REMARK   32  A    between atoms: _78  and  _80
REMARK   33  A    between atoms: _80  and  _81
REMARK   34  A    between atoms: _83  and  _85
REMARK   35  A    between atoms: _85  and  _86
REMARK   36  A    between atoms: _85  and  _88
REMARK   37  A    between atoms: _88  and  _89
REMARK   38  A    between atoms: _89  and  _90
REMARK   39  A    between atoms: _90  and  _91
REMARK   40  A    between atoms: _100  and  _102
REMARK   41  A    between atoms: _102  and  _103
REMARK   42  A    between atoms: _102  and  _105
REMARK   43  A    between atoms: _105  and  _106
REMARK   44  A    between atoms: _109  and  _111
REMARK   45  A    between atoms: _111  and  _112
REMARK   46  A    between atoms: _115  and  _117
REMARK   47  A    between atoms: _117  and  _118
REMARK   48  A    between atoms: _117  and  _120
REMARK   49  A    between atoms: _120  and  _121
REMARK   50  A    between atoms: _127  and  _129
REMARK   51  A    between atoms: _129  and  _130
REMARK   52  A    between atoms: _129  and  _132
REMARK   53  A    between atoms: _132  and  _133
REMARK   54  A    between atoms: _138  and  _139
REMARK   55  A    between atoms: _142  and  _143
REMARK   56  A    between atoms: _148  and  _150
REMARK   57  A    between atoms: _150  and  _151
REMARK   58  A    between atoms: _150  and  _153
REMARK   59  A    between atoms: _153  and  _154
REMARK   60  A    between atoms: _159  and  _161
REMARK   61  A    between atoms: _161  and  _162
REMARK   62  A    between atoms: _161  and  _164
REMARK   63  A    between atoms: _164  and  _165
REMARK   64  A    between atoms: _168  and  _170
REMARK   65  A    between atoms: _170  and  _171
REMARK   66  A    between atoms: _170  and  _173
REMARK   67  A    between atoms: _173  and  _174
REMARK   68  A    between atoms: _179  and  _181
REMARK   69  A    between atoms: _181  and  _182
REMARK   70  A    between atoms: _181  and  _184
REMARK   71  A    between atoms: _184  and  _185
REMARK   72  A    between atoms: _191  and  _193
REMARK   73  A    between atoms: _193  and  _194
REMARK   74  A    between atoms: _193  and  _196
REMARK   75  A    between atoms: _196  and  _197
REMARK   76  A    between atoms: _203  and  _205
REMARK   77  A    between atoms: _205  and  _206
REMARK   78  A    between atoms: _205  and  _208
REMARK   79  A    between atoms: _208  and  _209
REMARK   80  A    between atoms: _209  and  _210
REMARK   81  A    between atoms: _213  and  _215
REMARK   82  A    between atoms: _215  and  _216
REMARK   83  A    between atoms: _218  and  _220
REMARK   84  A    between atoms: _220  and  _221
REMARK   85  A    between atoms: _220  and  _223
REMARK   86  A    between atoms: _223  and  _224
REMARK   87  A    between atoms: _224  and  _225
REMARK   88  A    between atoms: _225  and  _226
REMARK   89  A    between atoms: _235  and  _237
REMARK   90  A    between atoms: _237  and  _238
REMARK   91  A    between atoms: _237  and  _240
REMARK   92  A    between atoms: _240  and  _241
REMARK   93  A    between atoms: _241  and  _242
REMARK   94  A    between atoms: _245  and  _247
REMARK   95  A    between atoms: _247  and  _248
REMARK   96  A    between atoms: _247  and  _250
REMARK   97  A    between atoms: _250  and  _251
REMARK   98  A    between atoms: _256  and  _258
REMARK   99  A    between atoms: _258  and  _259
REMARK  100  A    between atoms: _258  and  _261
REMARK  101  A    between atoms: _261  and  _262
REMARK  102  A    between atoms: _265  and  _267
REMARK  103  A    between atoms: _267  and  _268
REMARK  104  A    between atoms: _267  and  _270
REMARK  105  A    between atoms: _270  and  _271
REMARK  106  A    between atoms: _274  and  _276
REMARK  107  A    between atoms: _276  and  _277
REMARK  108  A    between atoms: _276  and  _279
REMARK  109  A    between atoms: _279  and  _280
REMARK  110  A    between atoms: _285  and  _287
REMARK  111  A    between atoms: _287  and  _288
REMARK  112  A    between atoms: _287  and  _290
REMARK  113  A    between atoms: _290  and  _291
REMARK  114  A    between atoms: _294  and  _296
REMARK  115  A    between atoms: _296  and  _297
REMARK  116  A    between atoms: _296  and  _299
REMARK  117  A    between atoms: _299  and  _300
REMARK  118  A    between atoms: _305  and  _307
REMARK  119  A    between atoms: _307  and  _308
REMARK  120  A    between atoms: _307  and  _310
REMARK  121  A    between atoms: _310  and  _311
REMARK  122  A    between atoms: _316  and  _318
REMARK  123  A    between atoms: _318  and  _319
REMARK  124  A    between atoms: _318  and  _321
REMARK  125  A    between atoms: _321  and  _322
REMARK  126  A    between atoms: _325  and  _327
REMARK  127  A    between atoms: _327  and  _328
REMARK  128  A    between atoms: _327  and  _330
REMARK  129  A    between atoms: _333  and  _335
REMARK  130  A    between atoms: _335  and  _336
REMARK  131  A    between atoms: _335  and  _338
REMARK  132  A    between atoms: _338  and  _339
REMARK  133  A    between atoms: _342  and  _344
REMARK  134  A    between atoms: _344  and  _345
REMARK  135  A    between atoms: _344  and  _347
REMARK  136  A    between atoms: _347  and  _348
REMARK  137  A    between atoms: _348  and  _349
REMARK  138  A    between atoms: _352  and  _354
REMARK  139  A    between atoms: _354  and  _355
REMARK  140  A    between atoms: _358  and  _360
REMARK  141  A    between atoms: _360  and  _361
REMARK  142  A    between atoms: _360  and  _363
REMARK  143  A    between atoms: _363  and  _364
REMARK  144  A    between atoms: _367  and  _369
REMARK  145  A    between atoms: _369  and  _370
REMARK  146  A    between atoms: _369  and  _372
REMARK  147  A    between atoms: _372  and  _373
REMARK  148  A    between atoms: _373  and  _374
REMARK  149  A    between atoms: _377  and  _379
REMARK  150  A    between atoms: _379  and  _380
REMARK  151  A    between atoms: _379  and  _382
REMARK  152  A    between atoms: _382  and  _383
REMARK  153  A    between atoms: _383  and  _384
REMARK  154  A    between atoms: _384  and  _385
REMARK  155  A    between atoms: _394  and  _396
REMARK  156  A    between atoms: _396  and  _397
REMARK  157  A    between atoms: _396  and  _399
REMARK  158  A    between atoms: _399  and  _400
REMARK  159  A    between atoms: _410  and  _412
REMARK  160  A    between atoms: _412  and  _413
REMARK  161  A    between atoms: _412  and  _415
REMARK  162  A    between atoms: _415  and  _416
REMARK  163  A    between atoms: _421  and  _423
REMARK  164  A    between atoms: _423  and  _424
REMARK  165  A    between atoms: _426  and  _428
REMARK  166  A    between atoms: _428  and  _429
REMARK  167  A    between atoms: _428  and  _431
REMARK  168  A    between atoms: _434  and  _436
REMARK  169  A    between atoms: _436  and  _437
REMARK  170  A    between atoms: _440  and  _442
REMARK  171  A    between atoms: _442  and  _443
REMARK  172  A    between atoms: _442  and  _445
REMARK  173  A    between atoms: _445  and  _446
REMARK  174  A    between atoms: _451  and  _453
REMARK  175  A    between atoms: _453  and  _454
REMARK  176  A    between atoms: _453  and  _456
REMARK  177  A    between atoms: _456  and  _457
REMARK  178  A    between atoms: _457  and  _458
REMARK  179  A    between atoms: _458  and  _459
REMARK  180  A    between atoms: _459  and  _460
REMARK  181  A    between atoms: _464  and  _466
REMARK  182  A    between atoms: _466  and  _467
REMARK  183  A    between atoms: _466  and  _469
REMARK  184  A    between atoms: _469  and  _470
REMARK  185  A    between atoms: _475  and  _477
REMARK  186  A    between atoms: _477  and  _478
REMARK  187  A    between atoms: _480  and  _482
REMARK  188  A    between atoms: _482  and  _483
REMARK  189  A    between atoms: _482  and  _485
REMARK  190  A    between atoms: _485  and  _486
REMARK  191  A    between atoms: _486  and  _487
REMARK  192  A    between atoms: _487  and  _488
REMARK  193  A    between atoms: _488  and  _489
REMARK  194  A    between atoms: _493  and  _495
REMARK  195  A    between atoms: _495  and  _496
REMARK  196  A    between atoms: _495  and  _498
REMARK  197  A    between atoms: _498  and  _499
REMARK  198  A    between atoms: _499  and  _500
REMARK  199  A    between atoms: _500  and  _501
REMARK  200  A    between atoms: _510  and  _512
REMARK  201  A    between atoms: _512  and  _513
REMARK  202  A    between atoms: _512  and  _515
REMARK  203  A    between atoms: _515  and  _516
REMARK  204  A    between atoms: _521  and  _522
REMARK  205  A    between atoms: _524  and  _526
REMARK  206  A    between atoms: _526  and  _527
REMARK  207  A    between atoms: _526  and  _529
REMARK  208  A    between atoms: _529  and  _530
REMARK  209  A    between atoms: _530  and  _531
REMARK  210  A    between atoms: _531  and  _532
REMARK  211  A    between atoms: _532  and  _533
REMARK  212  A    between atoms: _537  and  _539
REMARK  213  A    between atoms: _539  and  _540
REMARK  214  A    between atoms: _539  and  _542
REMARK  215  A    between atoms: _542  and  _543
REMARK  216  A    between atoms: _545  and  _547
REMARK  217  A    between atoms: _547  and  _548
REMARK  218  A    between atoms: _547  and  _550
REMARK  219  A    between atoms: _550  and  _551
REMARK  220  A    between atoms: _554  and  _556
REMARK  221  A    between atoms: _556  and  _557
REMARK  222  A    between atoms: _556  and  _559
REMARK  223  A    between atoms: _559  and  _560
REMARK  224  A    between atoms: _560  and  _561
REMARK  225  A    between atoms: _564  and  _566
REMARK  226  A    between atoms: _566  and  _567
REMARK  227  A    between atoms: _570  and  _572
REMARK  228  A    between atoms: _572  and  _573
REMARK  229  A    between atoms: _572  and  _575
REMARK  230  A    between atoms: _575  and  _576
REMARK  231  A    between atoms: _578  and  _580
REMARK  232  A    between atoms: _580  and  _581
REMARK  233  A    between atoms: _583  and  _585
REMARK  234  A    between atoms: _585  and  _586
REMARK  235  A    between atoms: _585  and  _588
REMARK  236  A    between atoms: _588  and  _589
REMARK  237  A    between atoms: _592  and  _594
REMARK  238  A    between atoms: _594  and  _595
REMARK  239  A    between atoms: _597  and  _599
REMARK  240  A    between atoms: _599  and  _600
REMARK  241  A    between atoms: _599  and  _602
REMARK  242  A    between atoms: _602  and  _603
REMARK  243  A    between atoms: _608  and  _610
REMARK  244  A    between atoms: _610  and  _611
REMARK  245  A    between atoms: _610  and  _613
REMARK  246  A    between atoms: _613  and  _614
REMARK  247  A    between atoms: _614  and  _615
REMARK  248  A    between atoms: _622  and  _623
REMARK  249  A    between atoms: _623  and  _639
REMARK  250  A    between atoms: _624  and  _626
REMARK  251  A    between atoms: _626  and  _627
REMARK  252  A    between atoms: _627  and  _628
REMARK  253  A    between atoms: _632  and  _634
REMARK  254  A    between atoms: _634  and  _635
REMARK  255  A    between atoms: _634  and  _642
REMARK  256  A    between atoms: _635  and  _636
REMARK  257  A    between atoms: _636  and  _637
REMARK  258  A    between atoms: _637  and  _638
REMARK  259  A    between atoms: _638  and  _639
REMARK  260  A    between atoms: _644  and  _646
REMARK  261  A    between atoms: _646  and  _647
REMARK  262  A    between atoms: _646  and  _649
REMARK  263  A    between atoms: _649  and  _650
REMARK  264  A    between atoms: _653  and  _655
REMARK  265  A    between atoms: _655  and  _656
REMARK  266  A    between atoms: _658  and  _660
REMARK  267  A    between atoms: _660  and  _661
REMARK  268  A    between atoms: _664  and  _666
REMARK  269  A    between atoms: _666  and  _667
REMARK  270  A    between atoms: _666  and  _669
REMARK  271  A    between atoms: _669  and  _670
REMARK  272  A    between atoms: _675  and  _676
REMARK                            x       y       z     vdW  Elec       q    Type
REMARK                         _______ _______ _______ _____ _____    ______ ____
ROOT
ATOM      1  O   HOH     1      29.380  21.659  26.398  0.00  0.00    +0.000 OA
ENDROOT
TORSDOF 0
REMARK  Name = ../refined-set-2016/3l7a/3l7a_pocket.pdb
REMARK  272 active torsions:
REMARK  status: ('A' for Active; 'I' for Inactive)
REMARK    1  A    between atoms: _1  and  _3
REMARK    2  A    between atoms: _3  and  _4
REMARK    3  A    between atoms: _3  and  _6
REMARK    4  A    between atoms: _6  and  _7
REMARK    5  A    between atoms: _12  and  _13
REMARK    6  A    between atoms: _15  and  _17
REMARK    7  A    between atoms: _17  and  _18
REMARK    8  A    between atoms: _17  and  _20
REMARK    9  A    between atoms: _20  and  _21
REMARK   10  A    between atoms: _24  and  _26
REMARK   11  A    between atoms: _26  and  _27
REMARK   12  A    between atoms: _26  and  _29
REMARK   13  A    between atoms: _29  and  _30
REMARK   14  A    between atoms: _30  and  _31
REMARK   15  A    between atoms: _34  and  _36
REMARK   16  A    between atoms: _36  and  _37
REMARK   17  A    between atoms: _36  and  _39
REMARK   18  A    between atoms: _39  and  _40
REMARK   19  A    between atoms: _45  and  _46
REMARK   20  A    between atoms: _48  and  _50
REMARK   21  A    between atoms: _50  and  _51
REMARK   22  A    between atoms: _50  and  _53
REMARK   23  A    between atoms: _53  and  _54
REMARK   24  A    between atoms: _59  and  _61
REMARK   25  A    between atoms: _61  and  _62
REMARK   26  A    between atoms: _64  and  _66
REMARK   27  A    between atoms: _66  and  _67
REMARK   28  A    between atoms: _69  and  _71
REMARK   29  A    between atoms: _71  and  _72
REMARK   30  A    between atoms: _71  and  _74
REMARK   31  A    between atoms: _74  and  _75
REMARK   32  A    between atoms: _78  and  _80
REMARK   33  A    between atoms: _80  and  _81
REMARK   34  A    between atoms: _83  and  _85
REMARK   35  A    between atoms: _85  and  _86
REMARK   36  A    between atoms: _85  and  _88
REMARK   37  A    between atoms: _88  and  _89
REMARK   38  A    between atoms: _89  and  _90
REMARK   39  A    between atoms: _90  and  _91
REMARK   40  A    between atoms: _100  and  _102
REMARK   41  A    between atoms: _102  and  _103
REMARK   42  A    between atoms: _102  and  _105
REMARK   43  A    between atoms: _105  and  _106
REMARK   44  A    between atoms: _109  and  _111
REMARK   45  A    between atoms: _111  and  _112
REMARK   46  A    between atoms: _115  and  _117
REMARK   47  A    between atoms: _117  and  _118
REMARK   48  A    between atoms: _117  and  _120
REMARK   49  A    between atoms: _120  and  _121
REMARK   50  A    between atoms: _127  and  _129
REMARK   51  A    between atoms: _129  and  _130
REMARK   52  A    between atoms: _129  and  _132
REMARK   53  A    between atoms: _132  and  _133
REMARK   54  A    between atoms: _138  and  _139
REMARK   55  A    between atoms: _142  and  _143
REMARK   56  A    between atoms: _148  and  _150
REMARK   57  A    between atoms: _150  and  _151
REMARK   58  A    between atoms: _150  and  _153
REMARK   59  A    between atoms: _153  and  _154
REMARK   60  A    between atoms: _159  and  _161
REMARK   61  A    between atoms: _161  and  _162
REMARK   62  A    between atoms: _161  and  _164
REMARK   63  A    between atoms: _164  and  _165
REMARK   64  A    between atoms: _168  and  _170
REMARK   65  A    between atoms: _170  and  _171
REMARK   66  A    between atoms: _170  and  _173
REMARK   67  A    between atoms: _173  and  _174
REMARK   68  A    between atoms: _179  and  _181
REMARK   69  A    between atoms: _181  and  _182
REMARK   70  A    between atoms: _181  and  _184
REMARK   71  A    between atoms: _184  and  _185
REMARK   72  A    between atoms: _191  and  _193
REMARK   73  A    between atoms: _193  and  _194
REMARK   74  A    between atoms: _193  and  _196
REMARK   75  A    between atoms: _196  and  _197
REMARK   76  A    between atoms: _203  and  _205
REMARK   77  A    between atoms: _205  and  _206
REMARK   78  A    between atoms: _205  and  _208
REMARK   79  A    between atoms: _208  and  _209
REMARK   80  A    between atoms: _209  and  _210
REMARK   81  A    between atoms: _213  and  _215
REMARK   82  A    between atoms: _215  and  _216
REMARK   83  A    between atoms: _218  and  _220
REMARK   84  A    between atoms: _220  and  _221
REMARK   85  A    between atoms: _220  and  _223
REMARK   86  A    between atoms: _223  and  _224
REMARK   87  A    between atoms: _224  and  _225
REMARK   88  A    between atoms: _225  and  _226
REMARK   89  A    between atoms: _235  and  _237
REMARK   90  A    between atoms: _237  and  _238
REMARK   91  A    between atoms: _237  and  _240
REMARK   92  A    between atoms: _240  and  _241
REMARK   93  A    between atoms: _241  and  _242
REMARK   94  A    between atoms: _245  and  _247
REMARK   95  A    between atoms: _247  and  _248
REMARK   96  A    between atoms: _247  and  _250
REMARK   97  A    between atoms: _250  and  _251
REMARK   98  A    between atoms: _256  and  _258
REMARK   99  A    between atoms: _258  and  _259
REMARK  100  A    between atoms: _258  and  _261
REMARK  101  A    between atoms: _261  and  _262
REMARK  102  A    between atoms: _265  and  _267
REMARK  103  A    between atoms: _267  and  _268
REMARK  104  A    between atoms: _267  and  _270
REMARK  105  A    between atoms: _270  and  _271
REMARK  106  A    between atoms: _274  and  _276
REMARK  107  A    between atoms: _276  and  _277
REMARK  108  A    between atoms: _276  and  _279
REMARK  109  A    between atoms: _279  and  _280
REMARK  110  A    between atoms: _285  and  _287
REMARK  111  A    between atoms: _287  and  _288
REMARK  112  A    between atoms: _287  and  _290
REMARK  113  A    between atoms: _290  and  _291
REMARK  114  A    between atoms: _294  and  _296
REMARK  115  A    between atoms: _296  and  _297
REMARK  116  A    between atoms: _296  and  _299
REMARK  117  A    between atoms: _299  and  _300
REMARK  118  A    between atoms: _305  and  _307
REMARK  119  A    between atoms: _307  and  _308
REMARK  120  A    between atoms: _307  and  _310
REMARK  121  A    between atoms: _310  and  _311
REMARK  122  A    between atoms: _316  and  _318
REMARK  123  A    between atoms: _318  and  _319
REMARK  124  A    between atoms: _318  and  _321
REMARK  125  A    between atoms: _321  and  _322
REMARK  126  A    between atoms: _325  and  _327
REMARK  127  A    between atoms: _327  and  _328
REMARK  128  A    between atoms: _327  and  _330
REMARK  129  A    between atoms: _333  and  _335
REMARK  130  A    between atoms: _335  and  _336
REMARK  131  A    between atoms: _335  and  _338
REMARK  132  A    between atoms: _338  and  _339
REMARK  133  A    between atoms: _342  and  _344
REMARK  134  A    between atoms: _344  and  _345
REMARK  135  A    between atoms: _344  and  _347
REMARK  136  A    between atoms: _347  and  _348
REMARK  137  A    between atoms: _348  and  _349
REMARK  138  A    between atoms: _352  and  _354
REMARK  139  A    between atoms: _354  and  _355
REMARK  140  A    between atoms: _358  and  _360
REMARK  141  A    between atoms: _360  and  _361
REMARK  142  A    between atoms: _360  and  _363
REMARK  143  A    between atoms: _363  and  _364
REMARK  144  A    between atoms: _367  and  _369
REMARK  145  A    between atoms: _369  and  _370
REMARK  146  A    between atoms: _369  and  _372
REMARK  147  A    between atoms: _372  and  _373
REMARK  148  A    between atoms: _373  and  _374
REMARK  149  A    between atoms: _377  and  _379
REMARK  150  A    between atoms: _379  and  _380
REMARK  151  A    between atoms: _379  and  _382
REMARK  152  A    between atoms: _382  and  _383
REMARK  153  A    between atoms: _383  and  _384
REMARK  154  A    between atoms: _384  and  _385
REMARK  155  A    between atoms: _394  and  _396
REMARK  156  A    between atoms: _396  and  _397
REMARK  157  A    between atoms: _396  and  _399
REMARK  158  A    between atoms: _399  and  _400
REMARK  159  A    between atoms: _410  and  _412
REMARK  160  A    between atoms: _412  and  _413
REMARK  161  A    between atoms: _412  and  _415
REMARK  162  A    between atoms: _415  and  _416
REMARK  163  A    between atoms: _421  and  _423
REMARK  164  A    between atoms: _423  and  _424
REMARK  165  A    between atoms: _426  and  _428
REMARK  166  A    between atoms: _428  and  _429
REMARK  167  A    between atoms: _428  and  _431
REMARK  168  A    between atoms: _434  and  _436
REMARK  169  A    between atoms: _436  and  _437
REMARK  170  A    between atoms: _440  and  _442
REMARK  171  A    between atoms: _442  and  _443
REMARK  172  A    between atoms: _442  and  _445
REMARK  173  A    between atoms: _445  and  _446
REMARK  174  A    between atoms: _451  and  _453
REMARK  175  A    between atoms: _453  and  _454
REMARK  176  A    between atoms: _453  and  _456
REMARK  177  A    between atoms: _456  and  _457
REMARK  178  A    between atoms: _457  and  _458
REMARK  179  A    between atoms: _458  and  _459
REMARK  180  A    between atoms: _459  and  _460
REMARK  181  A    between atoms: _464  and  _466
REMARK  182  A    between atoms: _466  and  _467
REMARK  183  A    between atoms: _466  and  _469
REMARK  184  A    between atoms: _469  and  _470
REMARK  185  A    between atoms: _475  and  _477
REMARK  186  A    between atoms: _477  and  _478
REMARK  187  A    between atoms: _480  and  _482
REMARK  188  A    between atoms: _482  and  _483
REMARK  189  A    between atoms: _482  and  _485
REMARK  190  A    between atoms: _485  and  _486
REMARK  191  A    between atoms: _486  and  _487
REMARK  192  A    between atoms: _487  and  _488
REMARK  193  A    between atoms: _488  and  _489
REMARK  194  A    between atoms: _493  and  _495
REMARK  195  A    between atoms: _495  and  _496
REMARK  196  A    between atoms: _495  and  _498
REMARK  197  A    between atoms: _498  and  _499
REMARK  198  A    between atoms: _499  and  _500
REMARK  199  A    between atoms: _500  and  _501
REMARK  200  A    between atoms: _510  and  _512
REMARK  201  A    between atoms: _512  and  _513
REMARK  202  A    between atoms: _512  and  _515
REMARK  203  A    between atoms: _515  and  _516
REMARK  204  A    between atoms: _521  and  _522
REMARK  205  A    between atoms: _524  and  _526
REMARK  206  A    between atoms: _526  and  _527
REMARK  207  A    between atoms: _526  and  _529
REMARK  208  A    between atoms: _529  and  _530
REMARK  209  A    between atoms: _530  and  _531
REMARK  210  A    between atoms: _531  and  _532
REMARK  211  A    between atoms: _532  and  _533
REMARK  212  A    between atoms: _537  and  _539
REMARK  213  A    between atoms: _539  and  _540
REMARK  214  A    between atoms: _539  and  _542
REMARK  215  A    between atoms: _542  and  _543
REMARK  216  A    between atoms: _545  and  _547
REMARK  217  A    between atoms: _547  and  _548
REMARK  218  A    between atoms: _547  and  _550
REMARK  219  A    between atoms: _550  and  _551
REMARK  220  A    between atoms: _554  and  _556
REMARK  221  A    between atoms: _556  and  _557
REMARK  222  A    between atoms: _556  and  _559
REMARK  223  A    between atoms: _559  and  _560
REMARK  224  A    between atoms: _560  and  _561
REMARK  225  A    between atoms: _564  and  _566
REMARK  226  A    between atoms: _566  and  _567
REMARK  227  A    between atoms: _570  and  _572
REMARK  228  A    between atoms: _572  and  _573
REMARK  229  A    between atoms: _572  and  _575
REMARK  230  A    between atoms: _575  and  _576
REMARK  231  A    between atoms: _578  and  _580
REMARK  232  A    between atoms: _580  and  _581
REMARK  233  A    between atoms: _583  and  _585
REMARK  234  A    between atoms: _585  and  _586
REMARK  235  A    between atoms: _585  and  _588
REMARK  236  A    between atoms: _588  and  _589
REMARK  237  A    between atoms: _592  and  _594
REMARK  238  A    between atoms: _594  and  _595
REMARK  239  A    between atoms: _597  and  _599
REMARK  240  A    between atoms: _599  and  _600
REMARK  241  A    between atoms: _599  and  _602
REMARK  242  A    between atoms: _602  and  _603
REMARK  243  A    between atoms: _608  and  _610
REMARK  244  A    between atoms: _610  and  _611
REMARK  245  A    between atoms: _610  and  _613
REMARK  246  A    between atoms: _613  and  _614
REMARK  247  A    between atoms: _614  and  _615
REMARK  248  A    between atoms: _622  and  _623
REMARK  249  A    between atoms: _623  and  _639
REMARK  250  A    between atoms: _624  and  _626
REMARK  251  A    between atoms: _626  and  _627
REMARK  252  A    between atoms: _627  and  _628
REMARK  253  A    between atoms: _632  and  _634
REMARK  254  A    between atoms: _634  and  _635
REMARK  255  A    between atoms: _634  and  _642
REMARK  256  A    between atoms: _635  and  _636
REMARK  257  A    between atoms: _636  and  _637
REMARK  258  A    between atoms: _637  and  _638
REMARK  259  A    between atoms: _638  and  _639
REMARK  260  A    between atoms: _644  and  _646
REMARK  261  A    between atoms: _646  and  _647
REMARK  262  A    between atoms: _646  and  _649
REMARK  263  A    between atoms: _649  and  _650
REMARK  264  A    between atoms: _653  and  _655
REMARK  265  A    between atoms: _655  and  _656
REMARK  266  A    between atoms: _658  and  _660
REMARK  267  A    between atoms: _660  and  _661
REMARK  268  A    between atoms: _664  and  _666
REMARK  269  A    between atoms: _666  and  _667
REMARK  270  A    between atoms: _666  and  _669
REMARK  271  A    between atoms: _669  and  _670
REMARK  272  A    between atoms: _675  and  _676
REMARK                            x       y       z     vdW  Elec       q    Type
REMARK                         _______ _______ _______ _____ _____    ______ ____
ROOT
ATOM      1  O   HOH     1      35.910  24.518  37.768  0.00  0.00    +0.000 OA
ENDROOT
TORSDOF 0
REMARK  Name = ../refined-set-2016/3l7a/3l7a_pocket.pdb
REMARK  272 active torsions:
REMARK  status: ('A' for Active; 'I' for Inactive)
REMARK    1  A    between atoms: _1  and  _3
REMARK    2  A    between atoms: _3  and  _4
REMARK    3  A    between atoms: _3  and  _6
REMARK    4  A    between atoms: _6  and  _7
REMARK    5  A    between atoms: _12  and  _13
REMARK    6  A    between atoms: _15  and  _17
REMARK    7  A    between atoms: _17  and  _18
REMARK    8  A    between atoms: _17  and  _20
REMARK    9  A    between atoms: _20  and  _21
REMARK   10  A    between atoms: _24  and  _26
REMARK   11  A    between atoms: _26  and  _27
REMARK   12  A    between atoms: _26  and  _29
REMARK   13  A    between atoms: _29  and  _30
REMARK   14  A    between atoms: _30  and  _31
REMARK   15  A    between atoms: _34  and  _36
REMARK   16  A    between atoms: _36  and  _37
REMARK   17  A    between atoms: _36  and  _39
REMARK   18  A    between atoms: _39  and  _40
REMARK   19  A    between atoms: _45  and  _46
REMARK   20  A    between atoms: _48  and  _50
REMARK   21  A    between atoms: _50  and  _51
REMARK   22  A    between atoms: _50  and  _53
REMARK   23  A    between atoms: _53  and  _54
REMARK   24  A    between atoms: _59  and  _61
REMARK   25  A    between atoms: _61  and  _62
REMARK   26  A    between atoms: _64  and  _66
REMARK   27  A    between atoms: _66  and  _67
REMARK   28  A    between atoms: _69  and  _71
REMARK   29  A    between atoms: _71  and  _72
REMARK   30  A    between atoms: _71  and  _74
REMARK   31  A    between atoms: _74  and  _75
REMARK   32  A    between atoms: _78  and  _80
REMARK   33  A    between atoms: _80  and  _81
REMARK   34  A    between atoms: _83  and  _85
REMARK   35  A    between atoms: _85  and  _86
REMARK   36  A    between atoms: _85  and  _88
REMARK   37  A    between atoms: _88  and  _89
REMARK   38  A    between atoms: _89  and  _90
REMARK   39  A    between atoms: _90  and  _91
REMARK   40  A    between atoms: _100  and  _102
REMARK   41  A    between atoms: _102  and  _103
REMARK   42  A    between atoms: _102  and  _105
REMARK   43  A    between atoms: _105  and  _106
REMARK   44  A    between atoms: _109  and  _111
REMARK   45  A    between atoms: _111  and  _112
REMARK   46  A    between atoms: _115  and  _117
REMARK   47  A    between atoms: _117  and  _118
REMARK   48  A    between atoms: _117  and  _120
REMARK   49  A    between atoms: _120  and  _121
REMARK   50  A    between atoms: _127  and  _129
REMARK   51  A    between atoms: _129  and  _130
REMARK   52  A    between atoms: _129  and  _132
REMARK   53  A    between atoms: _132  and  _133
REMARK   54  A    between atoms: _138  and  _139
REMARK   55  A    between atoms: _142  and  _143
REMARK   56  A    between atoms: _148  and  _150
REMARK   57  A    between atoms: _150  and  _151
REMARK   58  A    between atoms: _150  and  _153
REMARK   59  A    between atoms: _153  and  _154
REMARK   60  A    between atoms: _159  and  _161
REMARK   61  A    between atoms: _161  and  _162
REMARK   62  A    between atoms: _161  and  _164
REMARK   63  A    between atoms: _164  and  _165
REMARK   64  A    between atoms: _168  and  _170
REMARK   65  A    between atoms: _170  and  _171
REMARK   66  A    between atoms: _170  and  _173
REMARK   67  A    between atoms: _173  and  _174
REMARK   68  A    between atoms: _179  and  _181
REMARK   69  A    between atoms: _181  and  _182
REMARK   70  A    between atoms: _181  and  _184
REMARK   71  A    between atoms: _184  and  _185
REMARK   72  A    between atoms: _191  and  _193
REMARK   73  A    between atoms: _193  and  _194
REMARK   74  A    between atoms: _193  and  _196
REMARK   75  A    between atoms: _196  and  _197
REMARK   76  A    between atoms: _203  and  _205
REMARK   77  A    between atoms: _205  and  _206
REMARK   78  A    between atoms: _205  and  _208
REMARK   79  A    between atoms: _208  and  _209
REMARK   80  A    between atoms: _209  and  _210
REMARK   81  A    between atoms: _213  and  _215
REMARK   82  A    between atoms: _215  and  _216
REMARK   83  A    between atoms: _218  and  _220
REMARK   84  A    between atoms: _220  and  _221
REMARK   85  A    between atoms: _220  and  _223
REMARK   86  A    between atoms: _223  and  _224
REMARK   87  A    between atoms: _224  and  _225
REMARK   88  A    between atoms: _225  and  _226
REMARK   89  A    between atoms: _235  and  _237
REMARK   90  A    between atoms: _237  and  _238
REMARK   91  A    between atoms: _237  and  _240
REMARK   92  A    between atoms: _240  and  _241
REMARK   93  A    between atoms: _241  and  _242
REMARK   94  A    between atoms: _245  and  _247
REMARK   95  A    between atoms: _247  and  _248
REMARK   96  A    between atoms: _247  and  _250
REMARK   97  A    between atoms: _250  and  _251
REMARK   98  A    between atoms: _256  and  _258
REMARK   99  A    between atoms: _258  and  _259
REMARK  100  A    between atoms: _258  and  _261
REMARK  101  A    between atoms: _261  and  _262
REMARK  102  A    between atoms: _265  and  _267
REMARK  103  A    between atoms: _267  and  _268
REMARK  104  A    between atoms: _267  and  _270
REMARK  105  A    between atoms: _270  and  _271
REMARK  106  A    between atoms: _274  and  _276
REMARK  107  A    between atoms: _276  and  _277
REMARK  108  A    between atoms: _276  and  _279
REMARK  109  A    between atoms: _279  and  _280
REMARK  110  A    between atoms: _285  and  _287
REMARK  111  A    between atoms: _287  and  _288
REMARK  112  A    between atoms: _287  and  _290
REMARK  113  A    between atoms: _290  and  _291
REMARK  114  A    between atoms: _294  and  _296
REMARK  115  A    between atoms: _296  and  _297
REMARK  116  A    between atoms: _296  and  _299
REMARK  117  A    between atoms: _299  and  _300
REMARK  118  A    between atoms: _305  and  _307
REMARK  119  A    between atoms: _307  and  _308
REMARK  120  A    between atoms: _307  and  _310
REMARK  121  A    between atoms: _310  and  _311
REMARK  122  A    between atoms: _316  and  _318
REMARK  123  A    between atoms: _318  and  _319
REMARK  124  A    between atoms: _318  and  _321
REMARK  125  A    between atoms: _321  and  _322
REMARK  126  A    between atoms: _325  and  _327
REMARK  127  A    between atoms: _327  and  _328
REMARK  128  A    between atoms: _327  and  _330
REMARK  129  A    between atoms: _333  and  _335
REMARK  130  A    between atoms: _335  and  _336
REMARK  131  A    between atoms: _335  and  _338
REMARK  132  A    between atoms: _338  and  _339
REMARK  133  A    between atoms: _342  and  _344
REMARK  134  A    between atoms: _344  and  _345
REMARK  135  A    between atoms: _344  and  _347
REMARK  136  A    between atoms: _347  and  _348
REMARK  137  A    between atoms: _348  and  _349
REMARK  138  A    between atoms: _352  and  _354
REMARK  139  A    between atoms: _354  and  _355
REMARK  140  A    between atoms: _358  and  _360
REMARK  141  A    between atoms: _360  and  _361
REMARK  142  A    between atoms: _360  and  _363
REMARK  143  A    between atoms: _363  and  _364
REMARK  144  A    between atoms: _367  and  _369
REMARK  145  A    between atoms: _369  and  _370
REMARK  146  A    between atoms: _369  and  _372
REMARK  147  A    between atoms: _372  and  _373
REMARK  148  A    between atoms: _373  and  _374
REMARK  149  A    between atoms: _377  and  _379
REMARK  150  A    between atoms: _379  and  _380
REMARK  151  A    between atoms: _379  and  _382
REMARK  152  A    between atoms: _382  and  _383
REMARK  153  A    between atoms: _383  and  _384
REMARK  154  A    between atoms: _384  and  _385
REMARK  155  A    between atoms: _394  and  _396
REMARK  156  A    between atoms: _396  and  _397
REMARK  157  A    between atoms: _396  and  _399
REMARK  158  A    between atoms: _399  and  _400
REMARK  159  A    between atoms: _410  and  _412
REMARK  160  A    between atoms: _412  and  _413
REMARK  161  A    between atoms: _412  and  _415
REMARK  162  A    between atoms: _415  and  _416
REMARK  163  A    between atoms: _421  and  _423
REMARK  164  A    between atoms: _423  and  _424
REMARK  165  A    between atoms: _426  and  _428
REMARK  166  A    between atoms: _428  and  _429
REMARK  167  A    between atoms: _428  and  _431
REMARK  168  A    between atoms: _434  and  _436
REMARK  169  A    between atoms: _436  and  _437
REMARK  170  A    between atoms: _440  and  _442
REMARK  171  A    between atoms: _442  and  _443
REMARK  172  A    between atoms: _442  and  _445
REMARK  173  A    between atoms: _445  and  _446
REMARK  174  A    between atoms: _451  and  _453
REMARK  175  A    between atoms: _453  and  _454
REMARK  176  A    between atoms: _453  and  _456
REMARK  177  A    between atoms: _456  and  _457
REMARK  178  A    between atoms: _457  and  _458
REMARK  179  A    between atoms: _458  and  _459
REMARK  180  A    between atoms: _459  and  _460
REMARK  181  A    between atoms: _464  and  _466
REMARK  182  A    between atoms: _466  and  _467
REMARK  183  A    between atoms: _466  and  _469
REMARK  184  A    between atoms: _469  and  _470
REMARK  185  A    between atoms: _475  and  _477
REMARK  186  A    between atoms: _477  and  _478
REMARK  187  A    between atoms: _480  and  _482
REMARK  188  A    between atoms: _482  and  _483
REMARK  189  A    between atoms: _482  and  _485
REMARK  190  A    between atoms: _485  and  _486
REMARK  191  A    between atoms: _486  and  _487
REMARK  192  A    between atoms: _487  and  _488
REMARK  193  A    between atoms: _488  and  _489
REMARK  194  A    between atoms: _493  and  _495
REMARK  195  A    between atoms: _495  and  _496
REMARK  196  A    between atoms: _495  and  _498
REMARK  197  A    between atoms: _498  and  _499
REMARK  198  A    between atoms: _499  and  _500
REMARK  199  A    between atoms: _500  and  _501
REMARK  200  A    between atoms: _510  and  _512
REMARK  201  A    between atoms: _512  and  _513
REMARK  202  A    between atoms: _512  and  _515
REMARK  203  A    between atoms: _515  and  _516
REMARK  204  A    between atoms: _521  and  _522
REMARK  205  A    between atoms: _524  and  _526
REMARK  206  A    between atoms: _526  and  _527
REMARK  207  A    between atoms: _526  and  _529
REMARK  208  A    between atoms: _529  and  _530
REMARK  209  A    between atoms: _530  and  _531
REMARK  210  A    between atoms: _531  and  _532
REMARK  211  A    between atoms: _532  and  _533
REMARK  212  A    between atoms: _537  and  _539
REMARK  213  A    between atoms: _539  and  _540
REMARK  214  A    between atoms: _539  and  _542
REMARK  215  A    between atoms: _542  and  _543
REMARK  216  A    between atoms: _545  and  _547
REMARK  217  A    between atoms: _547  and  _548
REMARK  218  A    between atoms: _547  and  _550
REMARK  219  A    between atoms: _550  and  _551
REMARK  220  A    between atoms: _554  and  _556
REMARK  221  A    between atoms: _556  and  _557
REMARK  222  A    between atoms: _556  and  _559
REMARK  223  A    between atoms: _559  and  _560
REMARK  224  A    between atoms: _560  and  _561
REMARK  225  A    between atoms: _564  and  _566
REMARK  226  A    between atoms: _566  and  _567
REMARK  227  A    between atoms: _570  and  _572
REMARK  228  A    between atoms: _572  and  _573
REMARK  229  A    between atoms: _572  and  _575
REMARK  230  A    between atoms: _575  and  _576
REMARK  231  A    between atoms: _578  and  _580
REMARK  232  A    between atoms: _580  and  _581
REMARK  233  A    between atoms: _583  and  _585
REMARK  234  A    between atoms: _585  and  _586
REMARK  235  A    between atoms: _585  and  _588
REMARK  236  A    between atoms: _588  and  _589
REMARK  237  A    between atoms: _592  and  _594
REMARK  238  A    between atoms: _594  and  _595
REMARK  239  A    between atoms: _597  and  _599
REMARK  240  A    between atoms: _599  and  _600
REMARK  241  A    between atoms: _599  and  _602
REMARK  242  A    between atoms: _602  and  _603
REMARK  243  A    between atoms: _608  and  _610
REMARK  244  A    between atoms: _610  and  _611
REMARK  245  A    between atoms: _610  and  _613
REMARK  246  A    between atoms: _613  and  _614
REMARK  247  A    between atoms: _614  and  _615
REMARK  248  A    between atoms: _622  and  _623
REMARK  249  A    between atoms: _623  and  _639
REMARK  250  A    between atoms: _624  and  _626
REMARK  251  A    between atoms: _626  and  _627
REMARK  252  A    between atoms: _627  and  _628
REMARK  253  A    between atoms: _632  and  _634
REMARK  254  A    between atoms: _634  and  _635
REMARK  255  A    between atoms: _634  and  _642
REMARK  256  A    between atoms: _635  and  _636
REMARK  257  A    between atoms: _636  and  _637
REMARK  258  A    between atoms: _637  and  _638
REMARK  259  A    between atoms: _638  and  _639
REMARK  260  A    between atoms: _644  and  _646
REMARK  261  A    between atoms: _646  and  _647
REMARK  262  A    between atoms: _646  and  _649
REMARK  263  A    between atoms: _649  and  _650
REMARK  264  A    between atoms: _653  and  _655
REMARK  265  A    between atoms: _655  and  _656
REMARK  266  A    between atoms: _658  and  _660
REMARK  267  A    between atoms: _660  and  _661
REMARK  268  A    between atoms: _664  and  _666
REMARK  269  A    between atoms: _666  and  _667
REMARK  270  A    between atoms: _666  and  _669
REMARK  271  A    between atoms: _669  and  _670
REMARK  272  A    between atoms: _675  and  _676
REMARK                            x       y       z     vdW  Elec       q    Type
REMARK                         _______ _______ _______ _____ _____    ______ ____
ROOT
ATOM      1  O   HOH     1      41.101  29.142  38.296  0.00  0.00    +0.000 OA
ENDROOT
TORSDOF 0
REMARK  Name = ../refined-set-2016/3l7a/3l7a_pocket.pdb
REMARK  272 active torsions:
REMARK  status: ('A' for Active; 'I' for Inactive)
REMARK    1  A    between atoms: _1  and  _3
REMARK    2  A    between atoms: _3  and  _4
REMARK    3  A    between atoms: _3  and  _6
REMARK    4  A    between atoms: _6  and  _7
REMARK    5  A    between atoms: _12  and  _13
REMARK    6  A    between atoms: _15  and  _17
REMARK    7  A    between atoms: _17  and  _18
REMARK    8  A    between atoms: _17  and  _20
REMARK    9  A    between atoms: _20  and  _21
REMARK   10  A    between atoms: _24  and  _26
REMARK   11  A    between atoms: _26  and  _27
REMARK   12  A    between atoms: _26  and  _29
REMARK   13  A    between atoms: _29  and  _30
REMARK   14  A    between atoms: _30  and  _31
REMARK   15  A    between atoms: _34  and  _36
REMARK   16  A    between atoms: _36  and  _37
REMARK   17  A    between atoms: _36  and  _39
REMARK   18  A    between atoms: _39  and  _40
REMARK   19  A    between atoms: _45  and  _46
REMARK   20  A    between atoms: _48  and  _50
REMARK   21  A    between atoms: _50  and  _51
REMARK   22  A    between atoms: _50  and  _53
REMARK   23  A    between atoms: _53  and  _54
REMARK   24  A    between atoms: _59  and  _61
REMARK   25  A    between atoms: _61  and  _62
REMARK   26  A    between atoms: _64  and  _66
REMARK   27  A    between atoms: _66  and  _67
REMARK   28  A    between atoms: _69  and  _71
REMARK   29  A    between atoms: _71  and  _72
REMARK   30  A    between atoms: _71  and  _74
REMARK   31  A    between atoms: _74  and  _75
REMARK   32  A    between atoms: _78  and  _80
REMARK   33  A    between atoms: _80  and  _81
REMARK   34  A    between atoms: _83  and  _85
REMARK   35  A    between atoms: _85  and  _86
REMARK   36  A    between atoms: _85  and  _88
REMARK   37  A    between atoms: _88  and  _89
REMARK   38  A    between atoms: _89  and  _90
REMARK   39  A    between atoms: _90  and  _91
REMARK   40  A    between atoms: _100  and  _102
REMARK   41  A    between atoms: _102  and  _103
REMARK   42  A    between atoms: _102  and  _105
REMARK   43  A    between atoms: _105  and  _106
REMARK   44  A    between atoms: _109  and  _111
REMARK   45  A    between atoms: _111  and  _112
REMARK   46  A    between atoms: _115  and  _117
REMARK   47  A    between atoms: _117  and  _118
REMARK   48  A    between atoms: _117  and  _120
REMARK   49  A    between atoms: _120  and  _121
REMARK   50  A    between atoms: _127  and  _129
REMARK   51  A    between atoms: _129  and  _130
REMARK   52  A    between atoms: _129  and  _132
REMARK   53  A    between atoms: _132  and  _133
REMARK   54  A    between atoms: _138  and  _139
REMARK   55  A    between atoms: _142  and  _143
REMARK   56  A    between atoms: _148  and  _150
REMARK   57  A    between atoms: _150  and  _151
REMARK   58  A    between atoms: _150  and  _153
REMARK   59  A    between atoms: _153  and  _154
REMARK   60  A    between atoms: _159  and  _161
REMARK   61  A    between atoms: _161  and  _162
REMARK   62  A    between atoms: _161  and  _164
REMARK   63  A    between atoms: _164  and  _165
REMARK   64  A    between atoms: _168  and  _170
REMARK   65  A    between atoms: _170  and  _171
REMARK   66  A    between atoms: _170  and  _173
REMARK   67  A    between atoms: _173  and  _174
REMARK   68  A    between atoms: _179  and  _181
REMARK   69  A    between atoms: _181  and  _182
REMARK   70  A    between atoms: _181  and  _184
REMARK   71  A    between atoms: _184  and  _185
REMARK   72  A    between atoms: _191  and  _193
REMARK   73  A    between atoms: _193  and  _194
REMARK   74  A    between atoms: _193  and  _196
REMARK   75  A    between atoms: _196  and  _197
REMARK   76  A    between atoms: _203  and  _205
REMARK   77  A    between atoms: _205  and  _206
REMARK   78  A    between atoms: _205  and  _208
REMARK   79  A    between atoms: _208  and  _209
REMARK   80  A    between atoms: _209  and  _210
REMARK   81  A    between atoms: _213  and  _215
REMARK   82  A    between atoms: _215  and  _216
REMARK   83  A    between atoms: _218  and  _220
REMARK   84  A    between atoms: _220  and  _221
REMARK   85  A    between atoms: _220  and  _223
REMARK   86  A    between atoms: _223  and  _224
REMARK   87  A    between atoms: _224  and  _225
REMARK   88  A    between atoms: _225  and  _226
REMARK   89  A    between atoms: _235  and  _237
REMARK   90  A    between atoms: _237  and  _238
REMARK   91  A    between atoms: _237  and  _240
REMARK   92  A    between atoms: _240  and  _241
REMARK   93  A    between atoms: _241  and  _242
REMARK   94  A    between atoms: _245  and  _247
REMARK   95  A    between atoms: _247  and  _248
REMARK   96  A    between atoms: _247  and  _250
REMARK   97  A    between atoms: _250  and  _251
REMARK   98  A    between atoms: _256  and  _258
REMARK   99  A    between atoms: _258  and  _259
REMARK  100  A    between atoms: _258  and  _261
REMARK  101  A    between atoms: _261  and  _262
REMARK  102  A    between atoms: _265  and  _267
REMARK  103  A    between atoms: _267  and  _268
REMARK  104  A    between atoms: _267  and  _270
REMARK  105  A    between atoms: _270  and  _271
REMARK  106  A    between atoms: _274  and  _276
REMARK  107  A    between atoms: _276  and  _277
REMARK  108  A    between atoms: _276  and  _279
REMARK  109  A    between atoms: _279  and  _280
REMARK  110  A    between atoms: _285  and  _287
REMARK  111  A    between atoms: _287  and  _288
REMARK  112  A    between atoms: _287  and  _290
REMARK  113  A    between atoms: _290  and  _291
REMARK  114  A    between atoms: _294  and  _296
REMARK  115  A    between atoms: _296  and  _297
REMARK  116  A    between atoms: _296  and  _299
REMARK  117  A    between atoms: _299  and  _300
REMARK  118  A    between atoms: _305  and  _307
REMARK  119  A    between atoms: _307  and  _308
REMARK  120  A    between atoms: _307  and  _310
REMARK  121  A    between atoms: _310  and  _311
REMARK  122  A    between atoms: _316  and  _318
REMARK  123  A    between atoms: _318  and  _319
REMARK  124  A    between atoms: _318  and  _321
REMARK  125  A    between atoms: _321  and  _322
REMARK  126  A    between atoms: _325  and  _327
REMARK  127  A    between atoms: _327  and  _328
REMARK  128  A    between atoms: _327  and  _330
REMARK  129  A    between atoms: _333  and  _335
REMARK  130  A    between atoms: _335  and  _336
REMARK  131  A    between atoms: _335  and  _338
REMARK  132  A    between atoms: _338  and  _339
REMARK  133  A    between atoms: _342  and  _344
REMARK  134  A    between atoms: _344  and  _345
REMARK  135  A    between atoms: _344  and  _347
REMARK  136  A    between atoms: _347  and  _348
REMARK  137  A    between atoms: _348  and  _349
REMARK  138  A    between atoms: _352  and  _354
REMARK  139  A    between atoms: _354  and  _355
REMARK  140  A    between atoms: _358  and  _360
REMARK  141  A    between atoms: _360  and  _361
REMARK  142  A    between atoms: _360  and  _363
REMARK  143  A    between atoms: _363  and  _364
REMARK  144  A    between atoms: _367  and  _369
REMARK  145  A    between atoms: _369  and  _370
REMARK  146  A    between atoms: _369  and  _372
REMARK  147  A    between atoms: _372  and  _373
REMARK  148  A    between atoms: _373  and  _374
REMARK  149  A    between atoms: _377  and  _379
REMARK  150  A    between atoms: _379  and  _380
REMARK  151  A    between atoms: _379  and  _382
REMARK  152  A    between atoms: _382  and  _383
REMARK  153  A    between atoms: _383  and  _384
REMARK  154  A    between atoms: _384  and  _385
REMARK  155  A    between atoms: _394  and  _396
REMARK  156  A    between atoms: _396  and  _397
REMARK  157  A    between atoms: _396  and  _399
REMARK  158  A    between atoms: _399  and  _400
REMARK  159  A    between atoms: _410  and  _412
REMARK  160  A    between atoms: _412  and  _413
REMARK  161  A    between atoms: _412  and  _415
REMARK  162  A    between atoms: _415  and  _416
REMARK  163  A    between atoms: _421  and  _423
REMARK  164  A    between atoms: _423  and  _424
REMARK  165  A    between atoms: _426  and  _428
REMARK  166  A    between atoms: _428  and  _429
REMARK  167  A    between atoms: _428  and  _431
REMARK  168  A    between atoms: _434  and  _436
REMARK  169  A    between atoms: _436  and  _437
REMARK  170  A    between atoms: _440  and  _442
REMARK  171  A    between atoms: _442  and  _443
REMARK  172  A    between atoms: _442  and  _445
REMARK  173  A    between atoms: _445  and  _446
REMARK  174  A    between atoms: _451  and  _453
REMARK  175  A    between atoms: _453  and  _454
REMARK  176  A    between atoms: _453  and  _456
REMARK  177  A    between atoms: _456  and  _457
REMARK  178  A    between atoms: _457  and  _458
REMARK  179  A    between atoms: _458  and  _459
REMARK  180  A    between atoms: _459  and  _460
REMARK  181  A    between atoms: _464  and  _466
REMARK  182  A    between atoms: _466  and  _467
REMARK  183  A    between atoms: _466  and  _469
REMARK  184  A    between atoms: _469  and  _470
REMARK  185  A    between atoms: _475  and  _477
REMARK  186  A    between atoms: _477  and  _478
REMARK  187  A    between atoms: _480  and  _482
REMARK  188  A    between atoms: _482  and  _483
REMARK  189  A    between atoms: _482  and  _485
REMARK  190  A    between atoms: _485  and  _486
REMARK  191  A    between atoms: _486  and  _487
REMARK  192  A    between atoms: _487  and  _488
REMARK  193  A    between atoms: _488  and  _489
REMARK  194  A    between atoms: _493  and  _495
REMARK  195  A    between atoms: _495  and  _496
REMARK  196  A    between atoms: _495  and  _498
REMARK  197  A    between atoms: _498  and  _499
REMARK  198  A    between atoms: _499  and  _500
REMARK  199  A    between atoms: _500  and  _501
REMARK  200  A    between atoms: _510  and  _512
REMARK  201  A    between atoms: _512  and  _513
REMARK  202  A    between atoms: _512  and  _515
REMARK  203  A    between atoms: _515  and  _516
REMARK  204  A    between atoms: _521  and  _522
REMARK  205  A    between atoms: _524  and  _526
REMARK  206  A    between atoms: _526  and  _527
REMARK  207  A    between atoms: _526  and  _529
REMARK  208  A    between atoms: _529  and  _530
REMARK  209  A    between atoms: _530  and  _531
REMARK  210  A    between atoms: _531  and  _532
REMARK  211  A    between atoms: _532  and  _533
REMARK  212  A    between atoms: _537  and  _539
REMARK  213  A    between atoms: _539  and  _540
REMARK  214  A    between atoms: _539  and  _542
REMARK  215  A    between atoms: _542  and  _543
REMARK  216  A    between atoms: _545  and  _547
REMARK  217  A    between atoms: _547  and  _548
REMARK  218  A    between atoms: _547  and  _550
REMARK  219  A    between atoms: _550  and  _551
REMARK  220  A    between atoms: _554  and  _556
REMARK  221  A    between atoms: _556  and  _557
REMARK  222  A    between atoms: _556  and  _559
REMARK  223  A    between atoms: _559  and  _560
REMARK  224  A    between atoms: _560  and  _561
REMARK  225  A    between atoms: _564  and  _566
REMARK  226  A    between atoms: _566  and  _567
REMARK  227  A    between atoms: _570  and  _572
REMARK  228  A    between atoms: _572  and  _573
REMARK  229  A    between atoms: _572  and  _575
REMARK  230  A    between atoms: _575  and  _576
REMARK  231  A    between atoms: _578  and  _580
REMARK  232  A    between atoms: _580  and  _581
REMARK  233  A    between atoms: _583  and  _585
REMARK  234  A    between atoms: _585  and  _586
REMARK  235  A    between atoms: _585  and  _588
REMARK  236  A    between atoms: _588  and  _589
REMARK  237  A    between atoms: _592  and  _594
REMARK  238  A    between atoms: _594  and  _595
REMARK  239  A    between atoms: _597  and  _599
REMARK  240  A    between atoms: _599  and  _600
REMARK  241  A    between atoms: _599  and  _602
REMARK  242  A    between atoms: _602  and  _603
REMARK  243  A    between atoms: _608  and  _610
REMARK  244  A    between atoms: _610  and  _611
REMARK  245  A    between atoms: _610  and  _613
REMARK  246  A    between atoms: _613  and  _614
REMARK  247  A    between atoms: _614  and  _615
REMARK  248  A    between atoms: _622  and  _623
REMARK  249  A    between atoms: _623  and  _639
REMARK  250  A    between atoms: _624  and  _626
REMARK  251  A    between atoms: _626  and  _627
REMARK  252  A    between atoms: _627  and  _628
REMARK  253  A    between atoms: _632  and  _634
REMARK  254  A    between atoms: _634  and  _635
REMARK  255  A    between atoms: _634  and  _642
REMARK  256  A    between atoms: _635  and  _636
REMARK  257  A    between atoms: _636  and  _637
REMARK  258  A    between atoms: _637  and  _638
REMARK  259  A    between atoms: _638  and  _639
REMARK  260  A    between atoms: _644  and  _646
REMARK  261  A    between atoms: _646  and  _647
REMARK  262  A    between atoms: _646  and  _649
REMARK  263  A    between atoms: _649  and  _650
REMARK  264  A    between atoms: _653  and  _655
REMARK  265  A    between atoms: _655  and  _656
REMARK  266  A    between atoms: _658  and  _660
REMARK  267  A    between atoms: _660  and  _661
REMARK  268  A    between atoms: _664  and  _666
REMARK  269  A    between atoms: _666  and  _667
REMARK  270  A    between atoms: _666  and  _669
REMARK  271  A    between atoms: _669  and  _670
REMARK  272  A    between atoms: _675  and  _676
REMARK                            x       y       z     vdW  Elec       q    Type
REMARK                         _______ _______ _______ _____ _____    ______ ____
ROOT
ATOM      1  O   HOH     1      43.031  20.630  30.320  0.00  0.00    +0.000 OA
ENDROOT
TORSDOF 0
REMARK  Name = ../refined-set-2016/3l7a/3l7a_pocket.pdb
REMARK  272 active torsions:
REMARK  status: ('A' for Active; 'I' for Inactive)
REMARK    1  A    between atoms: _1  and  _3
REMARK    2  A    between atoms: _3  and  _4
REMARK    3  A    between atoms: _3  and  _6
REMARK    4  A    between atoms: _6  and  _7
REMARK    5  A    between atoms: _12  and  _13
REMARK    6  A    between atoms: _15  and  _17
REMARK    7  A    between atoms: _17  and  _18
REMARK    8  A    between atoms: _17  and  _20
REMARK    9  A    between atoms: _20  and  _21
REMARK   10  A    between atoms: _24  and  _26
REMARK   11  A    between atoms: _26  and  _27
REMARK   12  A    between atoms: _26  and  _29
REMARK   13  A    between atoms: _29  and  _30
REMARK   14  A    between atoms: _30  and  _31
REMARK   15  A    between atoms: _34  and  _36
REMARK   16  A    between atoms: _36  and  _37
REMARK   17  A    between atoms: _36  and  _39
REMARK   18  A    between atoms: _39  and  _40
REMARK   19  A    between atoms: _45  and  _46
REMARK   20  A    between atoms: _48  and  _50
REMARK   21  A    between atoms: _50  and  _51
REMARK   22  A    between atoms: _50  and  _53
REMARK   23  A    between atoms: _53  and  _54
REMARK   24  A    between atoms: _59  and  _61
REMARK   25  A    between atoms: _61  and  _62
REMARK   26  A    between atoms: _64  and  _66
REMARK   27  A    between atoms: _66  and  _67
REMARK   28  A    between atoms: _69  and  _71
REMARK   29  A    between atoms: _71  and  _72
REMARK   30  A    between atoms: _71  and  _74
REMARK   31  A    between atoms: _74  and  _75
REMARK   32  A    between atoms: _78  and  _80
REMARK   33  A    between atoms: _80  and  _81
REMARK   34  A    between atoms: _83  and  _85
REMARK   35  A    between atoms: _85  and  _86
REMARK   36  A    between atoms: _85  and  _88
REMARK   37  A    between atoms: _88  and  _89
REMARK   38  A    between atoms: _89  and  _90
REMARK   39  A    between atoms: _90  and  _91
REMARK   40  A    between atoms: _100  and  _102
REMARK   41  A    between atoms: _102  and  _103
REMARK   42  A    between atoms: _102  and  _105
REMARK   43  A    between atoms: _105  and  _106
REMARK   44  A    between atoms: _109  and  _111
REMARK   45  A    between atoms: _111  and  _112
REMARK   46  A    between atoms: _115  and  _117
REMARK   47  A    between atoms: _117  and  _118
REMARK   48  A    between atoms: _117  and  _120
REMARK   49  A    between atoms: _120  and  _121
REMARK   50  A    between atoms: _127  and  _129
REMARK   51  A    between atoms: _129  and  _130
REMARK   52  A    between atoms: _129  and  _132
REMARK   53  A    between atoms: _132  and  _133
REMARK   54  A    between atoms: _138  and  _139
REMARK   55  A    between atoms: _142  and  _143
REMARK   56  A    between atoms: _148  and  _150
REMARK   57  A    between atoms: _150  and  _151
REMARK   58  A    between atoms: _150  and  _153
REMARK   59  A    between atoms: _153  and  _154
REMARK   60  A    between atoms: _159  and  _161
REMARK   61  A    between atoms: _161  and  _162
REMARK   62  A    between atoms: _161  and  _164
REMARK   63  A    between atoms: _164  and  _165
REMARK   64  A    between atoms: _168  and  _170
REMARK   65  A    between atoms: _170  and  _171
REMARK   66  A    between atoms: _170  and  _173
REMARK   67  A    between atoms: _173  and  _174
REMARK   68  A    between atoms: _179  and  _181
REMARK   69  A    between atoms: _181  and  _182
REMARK   70  A    between atoms: _181  and  _184
REMARK   71  A    between atoms: _184  and  _185
REMARK   72  A    between atoms: _191  and  _193
REMARK   73  A    between atoms: _193  and  _194
REMARK   74  A    between atoms: _193  and  _196
REMARK   75  A    between atoms: _196  and  _197
REMARK   76  A    between atoms: _203  and  _205
REMARK   77  A    between atoms: _205  and  _206
REMARK   78  A    between atoms: _205  and  _208
REMARK   79  A    between atoms: _208  and  _209
REMARK   80  A    between atoms: _209  and  _210
REMARK   81  A    between atoms: _213  and  _215
REMARK   82  A    between atoms: _215  and  _216
REMARK   83  A    between atoms: _218  and  _220
REMARK   84  A    between atoms: _220  and  _221
REMARK   85  A    between atoms: _220  and  _223
REMARK   86  A    between atoms: _223  and  _224
REMARK   87  A    between atoms: _224  and  _225
REMARK   88  A    between atoms: _225  and  _226
REMARK   89  A    between atoms: _235  and  _237
REMARK   90  A    between atoms: _237  and  _238
REMARK   91  A    between atoms: _237  and  _240
REMARK   92  A    between atoms: _240  and  _241
REMARK   93  A    between atoms: _241  and  _242
REMARK   94  A    between atoms: _245  and  _247
REMARK   95  A    between atoms: _247  and  _248
REMARK   96  A    between atoms: _247  and  _250
REMARK   97  A    between atoms: _250  and  _251
REMARK   98  A    between atoms: _256  and  _258
REMARK   99  A    between atoms: _258  and  _259
REMARK  100  A    between atoms: _258  and  _261
REMARK  101  A    between atoms: _261  and  _262
REMARK  102  A    between atoms: _265  and  _267
REMARK  103  A    between atoms: _267  and  _268
REMARK  104  A    between atoms: _267  and  _270
REMARK  105  A    between atoms: _270  and  _271
REMARK  106  A    between atoms: _274  and  _276
REMARK  107  A    between atoms: _276  and  _277
REMARK  108  A    between atoms: _276  and  _279
REMARK  109  A    between atoms: _279  and  _280
REMARK  110  A    between atoms: _285  and  _287
REMARK  111  A    between atoms: _287  and  _288
REMARK  112  A    between atoms: _287  and  _290
REMARK  113  A    between atoms: _290  and  _291
REMARK  114  A    between atoms: _294  and  _296
REMARK  115  A    between atoms: _296  and  _297
REMARK  116  A    between atoms: _296  and  _299
REMARK  117  A    between atoms: _299  and  _300
REMARK  118  A    between atoms: _305  and  _307
REMARK  119  A    between atoms: _307  and  _308
REMARK  120  A    between atoms: _307  and  _310
REMARK  121  A    between atoms: _310  and  _311
REMARK  122  A    between atoms: _316  and  _318
REMARK  123  A    between atoms: _318  and  _319
REMARK  124  A    between atoms: _318  and  _321
REMARK  125  A    between atoms: _321  and  _322
REMARK  126  A    between atoms: _325  and  _327
REMARK  127  A    between atoms: _327  and  _328
REMARK  128  A    between atoms: _327  and  _330
REMARK  129  A    between atoms: _333  and  _335
REMARK  130  A    between atoms: _335  and  _336
REMARK  131  A    between atoms: _335  and  _338
REMARK  132  A    between atoms: _338  and  _339
REMARK  133  A    between atoms: _342  and  _344
REMARK  134  A    between atoms: _344  and  _345
REMARK  135  A    between atoms: _344  and  _347
REMARK  136  A    between atoms: _347  and  _348
REMARK  137  A    between atoms: _348  and  _349
REMARK  138  A    between atoms: _352  and  _354
REMARK  139  A    between atoms: _354  and  _355
REMARK  140  A    between atoms: _358  and  _360
REMARK  141  A    between atoms: _360  and  _361
REMARK  142  A    between atoms: _360  and  _363
REMARK  143  A    between atoms: _363  and  _364
REMARK  144  A    between atoms: _367  and  _369
REMARK  145  A    between atoms: _369  and  _370
REMARK  146  A    between atoms: _369  and  _372
REMARK  147  A    between atoms: _372  and  _373
REMARK  148  A    between atoms: _373  and  _374
REMARK  149  A    between atoms: _377  and  _379
REMARK  150  A    between atoms: _379  and  _380
REMARK  151  A    between atoms: _379  and  _382
REMARK  152  A    between atoms: _382  and  _383
REMARK  153  A    between atoms: _383  and  _384
REMARK  154  A    between atoms: _384  and  _385
REMARK  155  A    between atoms: _394  and  _396
REMARK  156  A    between atoms: _396  and  _397
REMARK  157  A    between atoms: _396  and  _399
REMARK  158  A    between atoms: _399  and  _400
REMARK  159  A    between atoms: _410  and  _412
REMARK  160  A    between atoms: _412  and  _413
REMARK  161  A    between atoms: _412  and  _415
REMARK  162  A    between atoms: _415  and  _416
REMARK  163  A    between atoms: _421  and  _423
REMARK  164  A    between atoms: _423  and  _424
REMARK  165  A    between atoms: _426  and  _428
REMARK  166  A    between atoms: _428  and  _429
REMARK  167  A    between atoms: _428  and  _431
REMARK  168  A    between atoms: _434  and  _436
REMARK  169  A    between atoms: _436  and  _437
REMARK  170  A    between atoms: _440  and  _442
REMARK  171  A    between atoms: _442  and  _443
REMARK  172  A    between atoms: _442  and  _445
REMARK  173  A    between atoms: _445  and  _446
REMARK  174  A    between atoms: _451  and  _453
REMARK  175  A    between atoms: _453  and  _454
REMARK  176  A    between atoms: _453  and  _456
REMARK  177  A    between atoms: _456  and  _457
REMARK  178  A    between atoms: _457  and  _458
REMARK  179  A    between atoms: _458  and  _459
REMARK  180  A    between atoms: _459  and  _460
REMARK  181  A    between atoms: _464  and  _466
REMARK  182  A    between atoms: _466  and  _467
REMARK  183  A    between atoms: _466  and  _469
REMARK  184  A    between atoms: _469  and  _470
REMARK  185  A    between atoms: _475  and  _477
REMARK  186  A    between atoms: _477  and  _478
REMARK  187  A    between atoms: _480  and  _482
REMARK  188  A    between atoms: _482  and  _483
REMARK  189  A    between atoms: _482  and  _485
REMARK  190  A    between atoms: _485  and  _486
REMARK  191  A    between atoms: _486  and  _487
REMARK  192  A    between atoms: _487  and  _488
REMARK  193  A    between atoms: _488  and  _489
REMARK  194  A    between atoms: _493  and  _495
REMARK  195  A    between atoms: _495  and  _496
REMARK  196  A    between atoms: _495  and  _498
REMARK  197  A    between atoms: _498  and  _499
REMARK  198  A    between atoms: _499  and  _500
REMARK  199  A    between atoms: _500  and  _501
REMARK  200  A    between atoms: _510  and  _512
REMARK  201  A    between atoms: _512  and  _513
REMARK  202  A    between atoms: _512  and  _515
REMARK  203  A    between atoms: _515  and  _516
REMARK  204  A    between atoms: _521  and  _522
REMARK  205  A    between atoms: _524  and  _526
REMARK  206  A    between atoms: _526  and  _527
REMARK  207  A    between atoms: _526  and  _529
REMARK  208  A    between atoms: _529  and  _530
REMARK  209  A    between atoms: _530  and  _531
REMARK  210  A    between atoms: _531  and  _532
REMARK  211  A    between atoms: _532  and  _533
REMARK  212  A    between atoms: _537  and  _539
REMARK  213  A    between atoms: _539  and  _540
REMARK  214  A    between atoms: _539  and  _542
REMARK  215  A    between atoms: _542  and  _543
REMARK  216  A    between atoms: _545  and  _547
REMARK  217  A    between atoms: _547  and  _548
REMARK  218  A    between atoms: _547  and  _550
REMARK  219  A    between atoms: _550  and  _551
REMARK  220  A    between atoms: _554  and  _556
REMARK  221  A    between atoms: _556  and  _557
REMARK  222  A    between atoms: _556  and  _559
REMARK  223  A    between atoms: _559  and  _560
REMARK  224  A    between atoms: _560  and  _561
REMARK  225  A    between atoms: _564  and  _566
REMARK  226  A    between atoms: _566  and  _567
REMARK  227  A    between atoms: _570  and  _572
REMARK  228  A    between atoms: _572  and  _573
REMARK  229  A    between atoms: _572  and  _575
REMARK  230  A    between atoms: _575  and  _576
REMARK  231  A    between atoms: _578  and  _580
REMARK  232  A    between atoms: _580  and  _581
REMARK  233  A    between atoms: _583  and  _585
REMARK  234  A    between atoms: _585  and  _586
REMARK  235  A    between atoms: _585  and  _588
REMARK  236  A    between atoms: _588  and  _589
REMARK  237  A    between atoms: _592  and  _594
REMARK  238  A    between atoms: _594  and  _595
REMARK  239  A    between atoms: _597  and  _599
REMARK  240  A    between atoms: _599  and  _600
REMARK  241  A    between atoms: _599  and  _602
REMARK  242  A    between atoms: _602  and  _603
REMARK  243  A    between atoms: _608  and  _610
REMARK  244  A    between atoms: _610  and  _611
REMARK  245  A    between atoms: _610  and  _613
REMARK  246  A    between atoms: _613  and  _614
REMARK  247  A    between atoms: _614  and  _615
REMARK  248  A    between atoms: _622  and  _623
REMARK  249  A    between atoms: _623  and  _639
REMARK  250  A    between atoms: _624  and  _626
REMARK  251  A    between atoms: _626  and  _627
REMARK  252  A    between atoms: _627  and  _628
REMARK  253  A    between atoms: _632  and  _634
REMARK  254  A    between atoms: _634  and  _635
REMARK  255  A    between atoms: _634  and  _642
REMARK  256  A    between atoms: _635  and  _636
REMARK  257  A    between atoms: _636  and  _637
REMARK  258  A    between atoms: _637  and  _638
REMARK  259  A    between atoms: _638  and  _639
REMARK  260  A    between atoms: _644  and  _646
REMARK  261  A    between atoms: _646  and  _647
REMARK  262  A    between atoms: _646  and  _649
REMARK  263  A    between atoms: _649  and  _650
REMARK  264  A    between atoms: _653  and  _655
REMARK  265  A    between atoms: _655  and  _656
REMARK  266  A    between atoms: _658  and  _660
REMARK  267  A    between atoms: _660  and  _661
REMARK  268  A    between atoms: _664  and  _666
REMARK  269  A    between atoms: _666  and  _667
REMARK  270  A    between atoms: _666  and  _669
REMARK  271  A    between atoms: _669  and  _670
REMARK  272  A    between atoms: _675  and  _676
REMARK                            x       y       z     vdW  Elec       q    Type
REMARK                         _______ _______ _______ _____ _____    ______ ____
ROOT
ATOM      1  O   HOH     1      32.555  25.608  32.285  0.00  0.00    +0.000 OA
ENDROOT
TORSDOF 0
REMARK  Name = ../refined-set-2016/3l7a/3l7a_pocket.pdb
REMARK  272 active torsions:
REMARK  status: ('A' for Active; 'I' for Inactive)
REMARK    1  A    between atoms: _1  and  _3
REMARK    2  A    between atoms: _3  and  _4
REMARK    3  A    between atoms: _3  and  _6
REMARK    4  A    between atoms: _6  and  _7
REMARK    5  A    between atoms: _12  and  _13
REMARK    6  A    between atoms: _15  and  _17
REMARK    7  A    between atoms: _17  and  _18
REMARK    8  A    between atoms: _17  and  _20
REMARK    9  A    between atoms: _20  and  _21
REMARK   10  A    between atoms: _24  and  _26
REMARK   11  A    between atoms: _26  and  _27
REMARK   12  A    between atoms: _26  and  _29
REMARK   13  A    between atoms: _29  and  _30
REMARK   14  A    between atoms: _30  and  _31
REMARK   15  A    between atoms: _34  and  _36
REMARK   16  A    between atoms: _36  and  _37
REMARK   17  A    between atoms: _36  and  _39
REMARK   18  A    between atoms: _39  and  _40
REMARK   19  A    between atoms: _45  and  _46
REMARK   20  A    between atoms: _48  and  _50
REMARK   21  A    between atoms: _50  and  _51
REMARK   22  A    between atoms: _50  and  _53
REMARK   23  A    between atoms: _53  and  _54
REMARK   24  A    between atoms: _59  and  _61
REMARK   25  A    between atoms: _61  and  _62
REMARK   26  A    between atoms: _64  and  _66
REMARK   27  A    between atoms: _66  and  _67
REMARK   28  A    between atoms: _69  and  _71
REMARK   29  A    between atoms: _71  and  _72
REMARK   30  A    between atoms: _71  and  _74
REMARK   31  A    between atoms: _74  and  _75
REMARK   32  A    between atoms: _78  and  _80
REMARK   33  A    between atoms: _80  and  _81
REMARK   34  A    between atoms: _83  and  _85
REMARK   35  A    between atoms: _85  and  _86
REMARK   36  A    between atoms: _85  and  _88
REMARK   37  A    between atoms: _88  and  _89
REMARK   38  A    between atoms: _89  and  _90
REMARK   39  A    between atoms: _90  and  _91
REMARK   40  A    between atoms: _100  and  _102
REMARK   41  A    between atoms: _102  and  _103
REMARK   42  A    between atoms: _102  and  _105
REMARK   43  A    between atoms: _105  and  _106
REMARK   44  A    between atoms: _109  and  _111
REMARK   45  A    between atoms: _111  and  _112
REMARK   46  A    between atoms: _115  and  _117
REMARK   47  A    between atoms: _117  and  _118
REMARK   48  A    between atoms: _117  and  _120
REMARK   49  A    between atoms: _120  and  _121
REMARK   50  A    between atoms: _127  and  _129
REMARK   51  A    between atoms: _129  and  _130
REMARK   52  A    between atoms: _129  and  _132
REMARK   53  A    between atoms: _132  and  _133
REMARK   54  A    between atoms: _138  and  _139
REMARK   55  A    between atoms: _142  and  _143
REMARK   56  A    between atoms: _148  and  _150
REMARK   57  A    between atoms: _150  and  _151
REMARK   58  A    between atoms: _150  and  _153
REMARK   59  A    between atoms: _153  and  _154
REMARK   60  A    between atoms: _159  and  _161
REMARK   61  A    between atoms: _161  and  _162
REMARK   62  A    between atoms: _161  and  _164
REMARK   63  A    between atoms: _164  and  _165
REMARK   64  A    between atoms: _168  and  _170
REMARK   65  A    between atoms: _170  and  _171
REMARK   66  A    between atoms: _170  and  _173
REMARK   67  A    between atoms: _173  and  _174
REMARK   68  A    between atoms: _179  and  _181
REMARK   69  A    between atoms: _181  and  _182
REMARK   70  A    between atoms: _181  and  _184
REMARK   71  A    between atoms: _184  and  _185
REMARK   72  A    between atoms: _191  and  _193
REMARK   73  A    between atoms: _193  and  _194
REMARK   74  A    between atoms: _193  and  _196
REMARK   75  A    between atoms: _196  and  _197
REMARK   76  A    between atoms: _203  and  _205
REMARK   77  A    between atoms: _205  and  _206
REMARK   78  A    between atoms: _205  and  _208
REMARK   79  A    between atoms: _208  and  _209
REMARK   80  A    between atoms: _209  and  _210
REMARK   81  A    between atoms: _213  and  _215
REMARK   82  A    between atoms: _215  and  _216
REMARK   83  A    between atoms: _218  and  _220
REMARK   84  A    between atoms: _220  and  _221
REMARK   85  A    between atoms: _220  and  _223
REMARK   86  A    between atoms: _223  and  _224
REMARK   87  A    between atoms: _224  and  _225
REMARK   88  A    between atoms: _225  and  _226
REMARK   89  A    between atoms: _235  and  _237
REMARK   90  A    between atoms: _237  and  _238
REMARK   91  A    between atoms: _237  and  _240
REMARK   92  A    between atoms: _240  and  _241
REMARK   93  A    between atoms: _241  and  _242
REMARK   94  A    between atoms: _245  and  _247
REMARK   95  A    between atoms: _247  and  _248
REMARK   96  A    between atoms: _247  and  _250
REMARK   97  A    between atoms: _250  and  _251
REMARK   98  A    between atoms: _256  and  _258
REMARK   99  A    between atoms: _258  and  _259
REMARK  100  A    between atoms: _258  and  _261
REMARK  101  A    between atoms: _261  and  _262
REMARK  102  A    between atoms: _265  and  _267
REMARK  103  A    between atoms: _267  and  _268
REMARK  104  A    between atoms: _267  and  _270
REMARK  105  A    between atoms: _270  and  _271
REMARK  106  A    between atoms: _274  and  _276
REMARK  107  A    between atoms: _276  and  _277
REMARK  108  A    between atoms: _276  and  _279
REMARK  109  A    between atoms: _279  and  _280
REMARK  110  A    between atoms: _285  and  _287
REMARK  111  A    between atoms: _287  and  _288
REMARK  112  A    between atoms: _287  and  _290
REMARK  113  A    between atoms: _290  and  _291
REMARK  114  A    between atoms: _294  and  _296
REMARK  115  A    between atoms: _296  and  _297
REMARK  116  A    between atoms: _296  and  _299
REMARK  117  A    between atoms: _299  and  _300
REMARK  118  A    between atoms: _305  and  _307
REMARK  119  A    between atoms: _307  and  _308
REMARK  120  A    between atoms: _307  and  _310
REMARK  121  A    between atoms: _310  and  _311
REMARK  122  A    between atoms: _316  and  _318
REMARK  123  A    between atoms: _318  and  _319
REMARK  124  A    between atoms: _318  and  _321
REMARK  125  A    between atoms: _321  and  _322
REMARK  126  A    between atoms: _325  and  _327
REMARK  127  A    between atoms: _327  and  _328
REMARK  128  A    between atoms: _327  and  _330
REMARK  129  A    between atoms: _333  and  _335
REMARK  130  A    between atoms: _335  and  _336
REMARK  131  A    between atoms: _335  and  _338
REMARK  132  A    between atoms: _338  and  _339
REMARK  133  A    between atoms: _342  and  _344
REMARK  134  A    between atoms: _344  and  _345
REMARK  135  A    between atoms: _344  and  _347
REMARK  136  A    between atoms: _347  and  _348
REMARK  137  A    between atoms: _348  and  _349
REMARK  138  A    between atoms: _352  and  _354
REMARK  139  A    between atoms: _354  and  _355
REMARK  140  A    between atoms: _358  and  _360
REMARK  141  A    between atoms: _360  and  _361
REMARK  142  A    between atoms: _360  and  _363
REMARK  143  A    between atoms: _363  and  _364
REMARK  144  A    between atoms: _367  and  _369
REMARK  145  A    between atoms: _369  and  _370
REMARK  146  A    between atoms: _369  and  _372
REMARK  147  A    between atoms: _372  and  _373
REMARK  148  A    between atoms: _373  and  _374
REMARK  149  A    between atoms: _377  and  _379
REMARK  150  A    between atoms: _379  and  _380
REMARK  151  A    between atoms: _379  and  _382
REMARK  152  A    between atoms: _382  and  _383
REMARK  153  A    between atoms: _383  and  _384
REMARK  154  A    between atoms: _384  and  _385
REMARK  155  A    between atoms: _394  and  _396
REMARK  156  A    between atoms: _396  and  _397
REMARK  157  A    between atoms: _396  and  _399
REMARK  158  A    between atoms: _399  and  _400
REMARK  159  A    between atoms: _410  and  _412
REMARK  160  A    between atoms: _412  and  _413
REMARK  161  A    between atoms: _412  and  _415
REMARK  162  A    between atoms: _415  and  _416
REMARK  163  A    between atoms: _421  and  _423
REMARK  164  A    between atoms: _423  and  _424
REMARK  165  A    between atoms: _426  and  _428
REMARK  166  A    between atoms: _428  and  _429
REMARK  167  A    between atoms: _428  and  _431
REMARK  168  A    between atoms: _434  and  _436
REMARK  169  A    between atoms: _436  and  _437
REMARK  170  A    between atoms: _440  and  _442
REMARK  171  A    between atoms: _442  and  _443
REMARK  172  A    between atoms: _442  and  _445
REMARK  173  A    between atoms: _445  and  _446
REMARK  174  A    between atoms: _451  and  _453
REMARK  175  A    between atoms: _453  and  _454
REMARK  176  A    between atoms: _453  and  _456
REMARK  177  A    between atoms: _456  and  _457
REMARK  178  A    between atoms: _457  and  _458
REMARK  179  A    between atoms: _458  and  _459
REMARK  180  A    between atoms: _459  and  _460
REMARK  181  A    between atoms: _464  and  _466
REMARK  182  A    between atoms: _466  and  _467
REMARK  183  A    between atoms: _466  and  _469
REMARK  184  A    between atoms: _469  and  _470
REMARK  185  A    between atoms: _475  and  _477
REMARK  186  A    between atoms: _477  and  _478
REMARK  187  A    between atoms: _480  and  _482
REMARK  188  A    between atoms: _482  and  _483
REMARK  189  A    between atoms: _482  and  _485
REMARK  190  A    between atoms: _485  and  _486
REMARK  191  A    between atoms: _486  and  _487
REMARK  192  A    between atoms: _487  and  _488
REMARK  193  A    between atoms: _488  and  _489
REMARK  194  A    between atoms: _493  and  _495
REMARK  195  A    between atoms: _495  and  _496
REMARK  196  A    between atoms: _495  and  _498
REMARK  197  A    between atoms: _498  and  _499
REMARK  198  A    between atoms: _499  and  _500
REMARK  199  A    between atoms: _500  and  _501
REMARK  200  A    between atoms: _510  and  _512
REMARK  201  A    between atoms: _512  and  _513
REMARK  202  A    between atoms: _512  and  _515
REMARK  203  A    between atoms: _515  and  _516
REMARK  204  A    between atoms: _521  and  _522
REMARK  205  A    between atoms: _524  and  _526
REMARK  206  A    between atoms: _526  and  _527
REMARK  207  A    between atoms: _526  and  _529
REMARK  208  A    between atoms: _529  and  _530
REMARK  209  A    between atoms: _530  and  _531
REMARK  210  A    between atoms: _531  and  _532
REMARK  211  A    between atoms: _532  and  _533
REMARK  212  A    between atoms: _537  and  _539
REMARK  213  A    between atoms: _539  and  _540
REMARK  214  A    between atoms: _539  and  _542
REMARK  215  A    between atoms: _542  and  _543
REMARK  216  A    between atoms: _545  and  _547
REMARK  217  A    between atoms: _547  and  _548
REMARK  218  A    between atoms: _547  and  _550
REMARK  219  A    between atoms: _550  and  _551
REMARK  220  A    between atoms: _554  and  _556
REMARK  221  A    between atoms: _556  and  _557
REMARK  222  A    between atoms: _556  and  _559
REMARK  223  A    between atoms: _559  and  _560
REMARK  224  A    between atoms: _560  and  _561
REMARK  225  A    between atoms: _564  and  _566
REMARK  226  A    between atoms: _566  and  _567
REMARK  227  A    between atoms: _570  and  _572
REMARK  228  A    between atoms: _572  and  _573
REMARK  229  A    between atoms: _572  and  _575
REMARK  230  A    between atoms: _575  and  _576
REMARK  231  A    between atoms: _578  and  _580
REMARK  232  A    between atoms: _580  and  _581
REMARK  233  A    between atoms: _583  and  _585
REMARK  234  A    between atoms: _585  and  _586
REMARK  235  A    between atoms: _585  and  _588
REMARK  236  A    between atoms: _588  and  _589
REMARK  237  A    between atoms: _592  and  _594
REMARK  238  A    between atoms: _594  and  _595
REMARK  239  A    between atoms: _597  and  _599
REMARK  240  A    between atoms: _599  and  _600
REMARK  241  A    between atoms: _599  and  _602
REMARK  242  A    between atoms: _602  and  _603
REMARK  243  A    between atoms: _608  and  _610
REMARK  244  A    between atoms: _610  and  _611
REMARK  245  A    between atoms: _610  and  _613
REMARK  246  A    between atoms: _613  and  _614
REMARK  247  A    between atoms: _614  and  _615
REMARK  248  A    between atoms: _622  and  _623
REMARK  249  A    between atoms: _623  and  _639
REMARK  250  A    between atoms: _624  and  _626
REMARK  251  A    between atoms: _626  and  _627
REMARK  252  A    between atoms: _627  and  _628
REMARK  253  A    between atoms: _632  and  _634
REMARK  254  A    between atoms: _634  and  _635
REMARK  255  A    between atoms: _634  and  _642
REMARK  256  A    between atoms: _635  and  _636
REMARK  257  A    between atoms: _636  and  _637
REMARK  258  A    between atoms: _637  and  _638
REMARK  259  A    between atoms: _638  and  _639
REMARK  260  A    between atoms: _644  and  _646
REMARK  261  A    between atoms: _646  and  _647
REMARK  262  A    between atoms: _646  and  _649
REMARK  263  A    between atoms: _649  and  _650
REMARK  264  A    between atoms: _653  and  _655
REMARK  265  A    between atoms: _655  and  _656
REMARK  266  A    between atoms: _658  and  _660
REMARK  267  A    between atoms: _660  and  _661
REMARK  268  A    between atoms: _664  and  _666
REMARK  269  A    between atoms: _666  and  _667
REMARK  270  A    between atoms: _666  and  _669
REMARK  271  A    between atoms: _669  and  _670
REMARK  272  A    between atoms: _675  and  _676
REMARK                            x       y       z     vdW  Elec       q    Type
REMARK                         _______ _______ _______ _____ _____    ______ ____
ROOT
ATOM      1  O   HOH     1      36.279  24.492  24.174  0.00  0.00    +0.000 OA
ENDROOT
TORSDOF 0
REMARK  Name = ../refined-set-2016/3l7a/3l7a_pocket.pdb
REMARK  272 active torsions:
REMARK  status: ('A' for Active; 'I' for Inactive)
REMARK    1  A    between atoms: _1  and  _3
REMARK    2  A    between atoms: _3  and  _4
REMARK    3  A    between atoms: _3  and  _6
REMARK    4  A    between atoms: _6  and  _7
REMARK    5  A    between atoms: _12  and  _13
REMARK    6  A    between atoms: _15  and  _17
REMARK    7  A    between atoms: _17  and  _18
REMARK    8  A    between atoms: _17  and  _20
REMARK    9  A    between atoms: _20  and  _21
REMARK   10  A    between atoms: _24  and  _26
REMARK   11  A    between atoms: _26  and  _27
REMARK   12  A    between atoms: _26  and  _29
REMARK   13  A    between atoms: _29  and  _30
REMARK   14  A    between atoms: _30  and  _31
REMARK   15  A    between atoms: _34  and  _36
REMARK   16  A    between atoms: _36  and  _37
REMARK   17  A    between atoms: _36  and  _39
REMARK   18  A    between atoms: _39  and  _40
REMARK   19  A    between atoms: _45  and  _46
REMARK   20  A    between atoms: _48  and  _50
REMARK   21  A    between atoms: _50  and  _51
REMARK   22  A    between atoms: _50  and  _53
REMARK   23  A    between atoms: _53  and  _54
REMARK   24  A    between atoms: _59  and  _61
REMARK   25  A    between atoms: _61  and  _62
REMARK   26  A    between atoms: _64  and  _66
REMARK   27  A    between atoms: _66  and  _67
REMARK   28  A    between atoms: _69  and  _71
REMARK   29  A    between atoms: _71  and  _72
REMARK   30  A    between atoms: _71  and  _74
REMARK   31  A    between atoms: _74  and  _75
REMARK   32  A    between atoms: _78  and  _80
REMARK   33  A    between atoms: _80  and  _81
REMARK   34  A    between atoms: _83  and  _85
REMARK   35  A    between atoms: _85  and  _86
REMARK   36  A    between atoms: _85  and  _88
REMARK   37  A    between atoms: _88  and  _89
REMARK   38  A    between atoms: _89  and  _90
REMARK   39  A    between atoms: _90  and  _91
REMARK   40  A    between atoms: _100  and  _102
REMARK   41  A    between atoms: _102  and  _103
REMARK   42  A    between atoms: _102  and  _105
REMARK   43  A    between atoms: _105  and  _106
REMARK   44  A    between atoms: _109  and  _111
REMARK   45  A    between atoms: _111  and  _112
REMARK   46  A    between atoms: _115  and  _117
REMARK   47  A    between atoms: _117  and  _118
REMARK   48  A    between atoms: _117  and  _120
REMARK   49  A    between atoms: _120  and  _121
REMARK   50  A    between atoms: _127  and  _129
REMARK   51  A    between atoms: _129  and  _130
REMARK   52  A    between atoms: _129  and  _132
REMARK   53  A    between atoms: _132  and  _133
REMARK   54  A    between atoms: _138  and  _139
REMARK   55  A    between atoms: _142  and  _143
REMARK   56  A    between atoms: _148  and  _150
REMARK   57  A    between atoms: _150  and  _151
REMARK   58  A    between atoms: _150  and  _153
REMARK   59  A    between atoms: _153  and  _154
REMARK   60  A    between atoms: _159  and  _161
REMARK   61  A    between atoms: _161  and  _162
REMARK   62  A    between atoms: _161  and  _164
REMARK   63  A    between atoms: _164  and  _165
REMARK   64  A    between atoms: _168  and  _170
REMARK   65  A    between atoms: _170  and  _171
REMARK   66  A    between atoms: _170  and  _173
REMARK   67  A    between atoms: _173  and  _174
REMARK   68  A    between atoms: _179  and  _181
REMARK   69  A    between atoms: _181  and  _182
REMARK   70  A    between atoms: _181  and  _184
REMARK   71  A    between atoms: _184  and  _185
REMARK   72  A    between atoms: _191  and  _193
REMARK   73  A    between atoms: _193  and  _194
REMARK   74  A    between atoms: _193  and  _196
REMARK   75  A    between atoms: _196  and  _197
REMARK   76  A    between atoms: _203  and  _205
REMARK   77  A    between atoms: _205  and  _206
REMARK   78  A    between atoms: _205  and  _208
REMARK   79  A    between atoms: _208  and  _209
REMARK   80  A    between atoms: _209  and  _210
REMARK   81  A    between atoms: _213  and  _215
REMARK   82  A    between atoms: _215  and  _216
REMARK   83  A    between atoms: _218  and  _220
REMARK   84  A    between atoms: _220  and  _221
REMARK   85  A    between atoms: _220  and  _223
REMARK   86  A    between atoms: _223  and  _224
REMARK   87  A    between atoms: _224  and  _225
REMARK   88  A    between atoms: _225  and  _226
REMARK   89  A    between atoms: _235  and  _237
REMARK   90  A    between atoms: _237  and  _238
REMARK   91  A    between atoms: _237  and  _240
REMARK   92  A    between atoms: _240  and  _241
REMARK   93  A    between atoms: _241  and  _242
REMARK   94  A    between atoms: _245  and  _247
REMARK   95  A    between atoms: _247  and  _248
REMARK   96  A    between atoms: _247  and  _250
REMARK   97  A    between atoms: _250  and  _251
REMARK   98  A    between atoms: _256  and  _258
REMARK   99  A    between atoms: _258  and  _259
REMARK  100  A    between atoms: _258  and  _261
REMARK  101  A    between atoms: _261  and  _262
REMARK  102  A    between atoms: _265  and  _267
REMARK  103  A    between atoms: _267  and  _268
REMARK  104  A    between atoms: _267  and  _270
REMARK  105  A    between atoms: _270  and  _271
REMARK  106  A    between atoms: _274  and  _276
REMARK  107  A    between atoms: _276  and  _277
REMARK  108  A    between atoms: _276  and  _279
REMARK  109  A    between atoms: _279  and  _280
REMARK  110  A    between atoms: _285  and  _287
REMARK  111  A    between atoms: _287  and  _288
REMARK  112  A    between atoms: _287  and  _290
REMARK  113  A    between atoms: _290  and  _291
REMARK  114  A    between atoms: _294  and  _296
REMARK  115  A    between atoms: _296  and  _297
REMARK  116  A    between atoms: _296  and  _299
REMARK  117  A    between atoms: _299  and  _300
REMARK  118  A    between atoms: _305  and  _307
REMARK  119  A    between atoms: _307  and  _308
REMARK  120  A    between atoms: _307  and  _310
REMARK  121  A    between atoms: _310  and  _311
REMARK  122  A    between atoms: _316  and  _318
REMARK  123  A    between atoms: _318  and  _319
REMARK  124  A    between atoms: _318  and  _321
REMARK  125  A    between atoms: _321  and  _322
REMARK  126  A    between atoms: _325  and  _327
REMARK  127  A    between atoms: _327  and  _328
REMARK  128  A    between atoms: _327  and  _330
REMARK  129  A    between atoms: _333  and  _335
REMARK  130  A    between atoms: _335  and  _336
REMARK  131  A    between atoms: _335  and  _338
REMARK  132  A    between atoms: _338  and  _339
REMARK  133  A    between atoms: _342  and  _344
REMARK  134  A    between atoms: _344  and  _345
REMARK  135  A    between atoms: _344  and  _347
REMARK  136  A    between atoms: _347  and  _348
REMARK  137  A    between atoms: _348  and  _349
REMARK  138  A    between atoms: _352  and  _354
REMARK  139  A    between atoms: _354  and  _355
REMARK  140  A    between atoms: _358  and  _360
REMARK  141  A    between atoms: _360  and  _361
REMARK  142  A    between atoms: _360  and  _363
REMARK  143  A    between atoms: _363  and  _364
REMARK  144  A    between atoms: _367  and  _369
REMARK  145  A    between atoms: _369  and  _370
REMARK  146  A    between atoms: _369  and  _372
REMARK  147  A    between atoms: _372  and  _373
REMARK  148  A    between atoms: _373  and  _374
REMARK  149  A    between atoms: _377  and  _379
REMARK  150  A    between atoms: _379  and  _380
REMARK  151  A    between atoms: _379  and  _382
REMARK  152  A    between atoms: _382  and  _383
REMARK  153  A    between atoms: _383  and  _384
REMARK  154  A    between atoms: _384  and  _385
REMARK  155  A    between atoms: _394  and  _396
REMARK  156  A    between atoms: _396  and  _397
REMARK  157  A    between atoms: _396  and  _399
REMARK  158  A    between atoms: _399  and  _400
REMARK  159  A    between atoms: _410  and  _412
REMARK  160  A    between atoms: _412  and  _413
REMARK  161  A    between atoms: _412  and  _415
REMARK  162  A    between atoms: _415  and  _416
REMARK  163  A    between atoms: _421  and  _423
REMARK  164  A    between atoms: _423  and  _424
REMARK  165  A    between atoms: _426  and  _428
REMARK  166  A    between atoms: _428  and  _429
REMARK  167  A    between atoms: _428  and  _431
REMARK  168  A    between atoms: _434  and  _436
REMARK  169  A    between atoms: _436  and  _437
REMARK  170  A    between atoms: _440  and  _442
REMARK  171  A    between atoms: _442  and  _443
REMARK  172  A    between atoms: _442  and  _445
REMARK  173  A    between atoms: _445  and  _446
REMARK  174  A    between atoms: _451  and  _453
REMARK  175  A    between atoms: _453  and  _454
REMARK  176  A    between atoms: _453  and  _456
REMARK  177  A    between atoms: _456  and  _457
REMARK  178  A    between atoms: _457  and  _458
REMARK  179  A    between atoms: _458  and  _459
REMARK  180  A    between atoms: _459  and  _460
REMARK  181  A    between atoms: _464  and  _466
REMARK  182  A    between atoms: _466  and  _467
REMARK  183  A    between atoms: _466  and  _469
REMARK  184  A    between atoms: _469  and  _470
REMARK  185  A    between atoms: _475  and  _477
REMARK  186  A    between atoms: _477  and  _478
REMARK  187  A    between atoms: _480  and  _482
REMARK  188  A    between atoms: _482  and  _483
REMARK  189  A    between atoms: _482  and  _485
REMARK  190  A    between atoms: _485  and  _486
REMARK  191  A    between atoms: _486  and  _487
REMARK  192  A    between atoms: _487  and  _488
REMARK  193  A    between atoms: _488  and  _489
REMARK  194  A    between atoms: _493  and  _495
REMARK  195  A    between atoms: _495  and  _496
REMARK  196  A    between atoms: _495  and  _498
REMARK  197  A    between atoms: _498  and  _499
REMARK  198  A    between atoms: _499  and  _500
REMARK  199  A    between atoms: _500  and  _501
REMARK  200  A    between atoms: _510  and  _512
REMARK  201  A    between atoms: _512  and  _513
REMARK  202  A    between atoms: _512  and  _515
REMARK  203  A    between atoms: _515  and  _516
REMARK  204  A    between atoms: _521  and  _522
REMARK  205  A    between atoms: _524  and  _526
REMARK  206  A    between atoms: _526  and  _527
REMARK  207  A    between atoms: _526  and  _529
REMARK  208  A    between atoms: _529  and  _530
REMARK  209  A    between atoms: _530  and  _531
REMARK  210  A    between atoms: _531  and  _532
REMARK  211  A    between atoms: _532  and  _533
REMARK  212  A    between atoms: _537  and  _539
REMARK  213  A    between atoms: _539  and  _540
REMARK  214  A    between atoms: _539  and  _542
REMARK  215  A    between atoms: _542  and  _543
REMARK  216  A    between atoms: _545  and  _547
REMARK  217  A    between atoms: _547  and  _548
REMARK  218  A    between atoms: _547  and  _550
REMARK  219  A    between atoms: _550  and  _551
REMARK  220  A    between atoms: _554  and  _556
REMARK  221  A    between atoms: _556  and  _557
REMARK  222  A    between atoms: _556  and  _559
REMARK  223  A    between atoms: _559  and  _560
REMARK  224  A    between atoms: _560  and  _561
REMARK  225  A    between atoms: _564  and  _566
REMARK  226  A    between atoms: _566  and  _567
REMARK  227  A    between atoms: _570  and  _572
REMARK  228  A    between atoms: _572  and  _573
REMARK  229  A    between atoms: _572  and  _575
REMARK  230  A    between atoms: _575  and  _576
REMARK  231  A    between atoms: _578  and  _580
REMARK  232  A    between atoms: _580  and  _581
REMARK  233  A    between atoms: _583  and  _585
REMARK  234  A    between atoms: _585  and  _586
REMARK  235  A    between atoms: _585  and  _588
REMARK  236  A    between atoms: _588  and  _589
REMARK  237  A    between atoms: _592  and  _594
REMARK  238  A    between atoms: _594  and  _595
REMARK  239  A    between atoms: _597  and  _599
REMARK  240  A    between atoms: _599  and  _600
REMARK  241  A    between atoms: _599  and  _602
REMARK  242  A    between atoms: _602  and  _603
REMARK  243  A    between atoms: _608  and  _610
REMARK  244  A    between atoms: _610  and  _611
REMARK  245  A    between atoms: _610  and  _613
REMARK  246  A    between atoms: _613  and  _614
REMARK  247  A    between atoms: _614  and  _615
REMARK  248  A    between atoms: _622  and  _623
REMARK  249  A    between atoms: _623  and  _639
REMARK  250  A    between atoms: _624  and  _626
REMARK  251  A    between atoms: _626  and  _627
REMARK  252  A    between atoms: _627  and  _628
REMARK  253  A    between atoms: _632  and  _634
REMARK  254  A    between atoms: _634  and  _635
REMARK  255  A    between atoms: _634  and  _642
REMARK  256  A    between atoms: _635  and  _636
REMARK  257  A    between atoms: _636  and  _637
REMARK  258  A    between atoms: _637  and  _638
REMARK  259  A    between atoms: _638  and  _639
REMARK  260  A    between atoms: _644  and  _646
REMARK  261  A    between atoms: _646  and  _647
REMARK  262  A    between atoms: _646  and  _649
REMARK  263  A    between atoms: _649  and  _650
REMARK  264  A    between atoms: _653  and  _655
REMARK  265  A    between atoms: _655  and  _656
REMARK  266  A    between atoms: _658  and  _660
REMARK  267  A    between atoms: _660  and  _661
REMARK  268  A    between atoms: _664  and  _666
REMARK  269  A    between atoms: _666  and  _667
REMARK  270  A    between atoms: _666  and  _669
REMARK  271  A    between atoms: _669  and  _670
REMARK  272  A    between atoms: _675  and  _676
REMARK                            x       y       z     vdW  Elec       q    Type
REMARK                         _______ _______ _______ _____ _____    ______ ____
ROOT
ATOM      1  O   HOH     1      39.178  22.809  19.701  0.00  0.00    +0.000 OA
ENDROOT
TORSDOF 0
REMARK  Name = ../refined-set-2016/3l7a/3l7a_pocket.pdb
REMARK  272 active torsions:
REMARK  status: ('A' for Active; 'I' for Inactive)
REMARK    1  A    between atoms: _1  and  _3
REMARK    2  A    between atoms: _3  and  _4
REMARK    3  A    between atoms: _3  and  _6
REMARK    4  A    between atoms: _6  and  _7
REMARK    5  A    between atoms: _12  and  _13
REMARK    6  A    between atoms: _15  and  _17
REMARK    7  A    between atoms: _17  and  _18
REMARK    8  A    between atoms: _17  and  _20
REMARK    9  A    between atoms: _20  and  _21
REMARK   10  A    between atoms: _24  and  _26
REMARK   11  A    between atoms: _26  and  _27
REMARK   12  A    between atoms: _26  and  _29
REMARK   13  A    between atoms: _29  and  _30
REMARK   14  A    between atoms: _30  and  _31
REMARK   15  A    between atoms: _34  and  _36
REMARK   16  A    between atoms: _36  and  _37
REMARK   17  A    between atoms: _36  and  _39
REMARK   18  A    between atoms: _39  and  _40
REMARK   19  A    between atoms: _45  and  _46
REMARK   20  A    between atoms: _48  and  _50
REMARK   21  A    between atoms: _50  and  _51
REMARK   22  A    between atoms: _50  and  _53
REMARK   23  A    between atoms: _53  and  _54
REMARK   24  A    between atoms: _59  and  _61
REMARK   25  A    between atoms: _61  and  _62
REMARK   26  A    between atoms: _64  and  _66
REMARK   27  A    between atoms: _66  and  _67
REMARK   28  A    between atoms: _69  and  _71
REMARK   29  A    between atoms: _71  and  _72
REMARK   30  A    between atoms: _71  and  _74
REMARK   31  A    between atoms: _74  and  _75
REMARK   32  A    between atoms: _78  and  _80
REMARK   33  A    between atoms: _80  and  _81
REMARK   34  A    between atoms: _83  and  _85
REMARK   35  A    between atoms: _85  and  _86
REMARK   36  A    between atoms: _85  and  _88
REMARK   37  A    between atoms: _88  and  _89
REMARK   38  A    between atoms: _89  and  _90
REMARK   39  A    between atoms: _90  and  _91
REMARK   40  A    between atoms: _100  and  _102
REMARK   41  A    between atoms: _102  and  _103
REMARK   42  A    between atoms: _102  and  _105
REMARK   43  A    between atoms: _105  and  _106
REMARK   44  A    between atoms: _109  and  _111
REMARK   45  A    between atoms: _111  and  _112
REMARK   46  A    between atoms: _115  and  _117
REMARK   47  A    between atoms: _117  and  _118
REMARK   48  A    between atoms: _117  and  _120
REMARK   49  A    between atoms: _120  and  _121
REMARK   50  A    between atoms: _127  and  _129
REMARK   51  A    between atoms: _129  and  _130
REMARK   52  A    between atoms: _129  and  _132
REMARK   53  A    between atoms: _132  and  _133
REMARK   54  A    between atoms: _138  and  _139
REMARK   55  A    between atoms: _142  and  _143
REMARK   56  A    between atoms: _148  and  _150
REMARK   57  A    between atoms: _150  and  _151
REMARK   58  A    between atoms: _150  and  _153
REMARK   59  A    between atoms: _153  and  _154
REMARK   60  A    between atoms: _159  and  _161
REMARK   61  A    between atoms: _161  and  _162
REMARK   62  A    between atoms: _161  and  _164
REMARK   63  A    between atoms: _164  and  _165
REMARK   64  A    between atoms: _168  and  _170
REMARK   65  A    between atoms: _170  and  _171
REMARK   66  A    between atoms: _170  and  _173
REMARK   67  A    between atoms: _173  and  _174
REMARK   68  A    between atoms: _179  and  _181
REMARK   69  A    between atoms: _181  and  _182
REMARK   70  A    between atoms: _181  and  _184
REMARK   71  A    between atoms: _184  and  _185
REMARK   72  A    between atoms: _191  and  _193
REMARK   73  A    between atoms: _193  and  _194
REMARK   74  A    between atoms: _193  and  _196
REMARK   75  A    between atoms: _196  and  _197
REMARK   76  A    between atoms: _203  and  _205
REMARK   77  A    between atoms: _205  and  _206
REMARK   78  A    between atoms: _205  and  _208
REMARK   79  A    between atoms: _208  and  _209
REMARK   80  A    between atoms: _209  and  _210
REMARK   81  A    between atoms: _213  and  _215
REMARK   82  A    between atoms: _215  and  _216
REMARK   83  A    between atoms: _218  and  _220
REMARK   84  A    between atoms: _220  and  _221
REMARK   85  A    between atoms: _220  and  _223
REMARK   86  A    between atoms: _223  and  _224
REMARK   87  A    between atoms: _224  and  _225
REMARK   88  A    between atoms: _225  and  _226
REMARK   89  A    between atoms: _235  and  _237
REMARK   90  A    between atoms: _237  and  _238
REMARK   91  A    between atoms: _237  and  _240
REMARK   92  A    between atoms: _240  and  _241
REMARK   93  A    between atoms: _241  and  _242
REMARK   94  A    between atoms: _245  and  _247
REMARK   95  A    between atoms: _247  and  _248
REMARK   96  A    between atoms: _247  and  _250
REMARK   97  A    between atoms: _250  and  _251
REMARK   98  A    between atoms: _256  and  _258
REMARK   99  A    between atoms: _258  and  _259
REMARK  100  A    between atoms: _258  and  _261
REMARK  101  A    between atoms: _261  and  _262
REMARK  102  A    between atoms: _265  and  _267
REMARK  103  A    between atoms: _267  and  _268
REMARK  104  A    between atoms: _267  and  _270
REMARK  105  A    between atoms: _270  and  _271
REMARK  106  A    between atoms: _274  and  _276
REMARK  107  A    between atoms: _276  and  _277
REMARK  108  A    between atoms: _276  and  _279
REMARK  109  A    between atoms: _279  and  _280
REMARK  110  A    between atoms: _285  and  _287
REMARK  111  A    between atoms: _287  and  _288
REMARK  112  A    between atoms: _287  and  _290
REMARK  113  A    between atoms: _290  and  _291
REMARK  114  A    between atoms: _294  and  _296
REMARK  115  A    between atoms: _296  and  _297
REMARK  116  A    between atoms: _296  and  _299
REMARK  117  A    between atoms: _299  and  _300
REMARK  118  A    between atoms: _305  and  _307
REMARK  119  A    between atoms: _307  and  _308
REMARK  120  A    between atoms: _307  and  _310
REMARK  121  A    between atoms: _310  and  _311
REMARK  122  A    between atoms: _316  and  _318
REMARK  123  A    between atoms: _318  and  _319
REMARK  124  A    between atoms: _318  and  _321
REMARK  125  A    between atoms: _321  and  _322
REMARK  126  A    between atoms: _325  and  _327
REMARK  127  A    between atoms: _327  and  _328
REMARK  128  A    between atoms: _327  and  _330
REMARK  129  A    between atoms: _333  and  _335
REMARK  130  A    between atoms: _335  and  _336
REMARK  131  A    between atoms: _335  and  _338
REMARK  132  A    between atoms: _338  and  _339
REMARK  133  A    between atoms: _342  and  _344
REMARK  134  A    between atoms: _344  and  _345
REMARK  135  A    between atoms: _344  and  _347
REMARK  136  A    between atoms: _347  and  _348
REMARK  137  A    between atoms: _348  and  _349
REMARK  138  A    between atoms: _352  and  _354
REMARK  139  A    between atoms: _354  and  _355
REMARK  140  A    between atoms: _358  and  _360
REMARK  141  A    between atoms: _360  and  _361
REMARK  142  A    between atoms: _360  and  _363
REMARK  143  A    between atoms: _363  and  _364
REMARK  144  A    between atoms: _367  and  _369
REMARK  145  A    between atoms: _369  and  _370
REMARK  146  A    between atoms: _369  and  _372
REMARK  147  A    between atoms: _372  and  _373
REMARK  148  A    between atoms: _373  and  _374
REMARK  149  A    between atoms: _377  and  _379
REMARK  150  A    between atoms: _379  and  _380
REMARK  151  A    between atoms: _379  and  _382
REMARK  152  A    between atoms: _382  and  _383
REMARK  153  A    between atoms: _383  and  _384
REMARK  154  A    between atoms: _384  and  _385
REMARK  155  A    between atoms: _394  and  _396
REMARK  156  A    between atoms: _396  and  _397
REMARK  157  A    between atoms: _396  and  _399
REMARK  158  A    between atoms: _399  and  _400
REMARK  159  A    between atoms: _410  and  _412
REMARK  160  A    between atoms: _412  and  _413
REMARK  161  A    between atoms: _412  and  _415
REMARK  162  A    between atoms: _415  and  _416
REMARK  163  A    between atoms: _421  and  _423
REMARK  164  A    between atoms: _423  and  _424
REMARK  165  A    between atoms: _426  and  _428
REMARK  166  A    between atoms: _428  and  _429
REMARK  167  A    between atoms: _428  and  _431
REMARK  168  A    between atoms: _434  and  _436
REMARK  169  A    between atoms: _436  and  _437
REMARK  170  A    between atoms: _440  and  _442
REMARK  171  A    between atoms: _442  and  _443
REMARK  172  A    between atoms: _442  and  _445
REMARK  173  A    between atoms: _445  and  _446
REMARK  174  A    between atoms: _451  and  _453
REMARK  175  A    between atoms: _453  and  _454
REMARK  176  A    between atoms: _453  and  _456
REMARK  177  A    between atoms: _456  and  _457
REMARK  178  A    between atoms: _457  and  _458
REMARK  179  A    between atoms: _458  and  _459
REMARK  180  A    between atoms: _459  and  _460
REMARK  181  A    between atoms: _464  and  _466
REMARK  182  A    between atoms: _466  and  _467
REMARK  183  A    between atoms: _466  and  _469
REMARK  184  A    between atoms: _469  and  _470
REMARK  185  A    between atoms: _475  and  _477
REMARK  186  A    between atoms: _477  and  _478
REMARK  187  A    between atoms: _480  and  _482
REMARK  188  A    between atoms: _482  and  _483
REMARK  189  A    between atoms: _482  and  _485
REMARK  190  A    between atoms: _485  and  _486
REMARK  191  A    between atoms: _486  and  _487
REMARK  192  A    between atoms: _487  and  _488
REMARK  193  A    between atoms: _488  and  _489
REMARK  194  A    between atoms: _493  and  _495
REMARK  195  A    between atoms: _495  and  _496
REMARK  196  A    between atoms: _495  and  _498
REMARK  197  A    between atoms: _498  and  _499
REMARK  198  A    between atoms: _499  and  _500
REMARK  199  A    between atoms: _500  and  _501
REMARK  200  A    between atoms: _510  and  _512
REMARK  201  A    between atoms: _512  and  _513
REMARK  202  A    between atoms: _512  and  _515
REMARK  203  A    between atoms: _515  and  _516
REMARK  204  A    between atoms: _521  and  _522
REMARK  205  A    between atoms: _524  and  _526
REMARK  206  A    between atoms: _526  and  _527
REMARK  207  A    between atoms: _526  and  _529
REMARK  208  A    between atoms: _529  and  _530
REMARK  209  A    between atoms: _530  and  _531
REMARK  210  A    between atoms: _531  and  _532
REMARK  211  A    between atoms: _532  and  _533
REMARK  212  A    between atoms: _537  and  _539
REMARK  213  A    between atoms: _539  and  _540
REMARK  214  A    between atoms: _539  and  _542
REMARK  215  A    between atoms: _542  and  _543
REMARK  216  A    between atoms: _545  and  _547
REMARK  217  A    between atoms: _547  and  _548
REMARK  218  A    between atoms: _547  and  _550
REMARK  219  A    between atoms: _550  and  _551
REMARK  220  A    between atoms: _554  and  _556
REMARK  221  A    between atoms: _556  and  _557
REMARK  222  A    between atoms: _556  and  _559
REMARK  223  A    between atoms: _559  and  _560
REMARK  224  A    between atoms: _560  and  _561
REMARK  225  A    between atoms: _564  and  _566
REMARK  226  A    between atoms: _566  and  _567
REMARK  227  A    between atoms: _570  and  _572
REMARK  228  A    between atoms: _572  and  _573
REMARK  229  A    between atoms: _572  and  _575
REMARK  230  A    between atoms: _575  and  _576
REMARK  231  A    between atoms: _578  and  _580
REMARK  232  A    between atoms: _580  and  _581
REMARK  233  A    between atoms: _583  and  _585
REMARK  234  A    between atoms: _585  and  _586
REMARK  235  A    between atoms: _585  and  _588
REMARK  236  A    between atoms: _588  and  _589
REMARK  237  A    between atoms: _592  and  _594
REMARK  238  A    between atoms: _594  and  _595
REMARK  239  A    between atoms: _597  and  _599
REMARK  240  A    between atoms: _599  and  _600
REMARK  241  A    between atoms: _599  and  _602
REMARK  242  A    between atoms: _602  and  _603
REMARK  243  A    between atoms: _608  and  _610
REMARK  244  A    between atoms: _610  and  _611
REMARK  245  A    between atoms: _610  and  _613
REMARK  246  A    between atoms: _613  and  _614
REMARK  247  A    between atoms: _614  and  _615
REMARK  248  A    between atoms: _622  and  _623
REMARK  249  A    between atoms: _623  and  _639
REMARK  250  A    between atoms: _624  and  _626
REMARK  251  A    between atoms: _626  and  _627
REMARK  252  A    between atoms: _627  and  _628
REMARK  253  A    between atoms: _632  and  _634
REMARK  254  A    between atoms: _634  and  _635
REMARK  255  A    between atoms: _634  and  _642
REMARK  256  A    between atoms: _635  and  _636
REMARK  257  A    between atoms: _636  and  _637
REMARK  258  A    between atoms: _637  and  _638
REMARK  259  A    between atoms: _638  and  _639
REMARK  260  A    between atoms: _644  and  _646
REMARK  261  A    between atoms: _646  and  _647
REMARK  262  A    between atoms: _646  and  _649
REMARK  263  A    between atoms: _649  and  _650
REMARK  264  A    between atoms: _653  and  _655
REMARK  265  A    between atoms: _655  and  _656
REMARK  266  A    between atoms: _658  and  _660
REMARK  267  A    between atoms: _660  and  _661
REMARK  268  A    between atoms: _664  and  _666
REMARK  269  A    between atoms: _666  and  _667
REMARK  270  A    between atoms: _666  and  _669
REMARK  271  A    between atoms: _669  and  _670
REMARK  272  A    between atoms: _675  and  _676
REMARK                            x       y       z     vdW  Elec       q    Type
REMARK                         _______ _______ _______ _____ _____    ______ ____
ROOT
ATOM      1  O   HOH     1      34.448  25.607  34.359  0.00  0.00    +0.000 OA
ENDROOT
TORSDOF 0
REMARK  Name = ../refined-set-2016/3l7a/3l7a_pocket.pdb
REMARK  272 active torsions:
REMARK  status: ('A' for Active; 'I' for Inactive)
REMARK    1  A    between atoms: _1  and  _3
REMARK    2  A    between atoms: _3  and  _4
REMARK    3  A    between atoms: _3  and  _6
REMARK    4  A    between atoms: _6  and  _7
REMARK    5  A    between atoms: _12  and  _13
REMARK    6  A    between atoms: _15  and  _17
REMARK    7  A    between atoms: _17  and  _18
REMARK    8  A    between atoms: _17  and  _20
REMARK    9  A    between atoms: _20  and  _21
REMARK   10  A    between atoms: _24  and  _26
REMARK   11  A    between atoms: _26  and  _27
REMARK   12  A    between atoms: _26  and  _29
REMARK   13  A    between atoms: _29  and  _30
REMARK   14  A    between atoms: _30  and  _31
REMARK   15  A    between atoms: _34  and  _36
REMARK   16  A    between atoms: _36  and  _37
REMARK   17  A    between atoms: _36  and  _39
REMARK   18  A    between atoms: _39  and  _40
REMARK   19  A    between atoms: _45  and  _46
REMARK   20  A    between atoms: _48  and  _50
REMARK   21  A    between atoms: _50  and  _51
REMARK   22  A    between atoms: _50  and  _53
REMARK   23  A    between atoms: _53  and  _54
REMARK   24  A    between atoms: _59  and  _61
REMARK   25  A    between atoms: _61  and  _62
REMARK   26  A    between atoms: _64  and  _66
REMARK   27  A    between atoms: _66  and  _67
REMARK   28  A    between atoms: _69  and  _71
REMARK   29  A    between atoms: _71  and  _72
REMARK   30  A    between atoms: _71  and  _74
REMARK   31  A    between atoms: _74  and  _75
REMARK   32  A    between atoms: _78  and  _80
REMARK   33  A    between atoms: _80  and  _81
REMARK   34  A    between atoms: _83  and  _85
REMARK   35  A    between atoms: _85  and  _86
REMARK   36  A    between atoms: _85  and  _88
REMARK   37  A    between atoms: _88  and  _89
REMARK   38  A    between atoms: _89  and  _90
REMARK   39  A    between atoms: _90  and  _91
REMARK   40  A    between atoms: _100  and  _102
REMARK   41  A    between atoms: _102  and  _103
REMARK   42  A    between atoms: _102  and  _105
REMARK   43  A    between atoms: _105  and  _106
REMARK   44  A    between atoms: _109  and  _111
REMARK   45  A    between atoms: _111  and  _112
REMARK   46  A    between atoms: _115  and  _117
REMARK   47  A    between atoms: _117  and  _118
REMARK   48  A    between atoms: _117  and  _120
REMARK   49  A    between atoms: _120  and  _121
REMARK   50  A    between atoms: _127  and  _129
REMARK   51  A    between atoms: _129  and  _130
REMARK   52  A    between atoms: _129  and  _132
REMARK   53  A    between atoms: _132  and  _133
REMARK   54  A    between atoms: _138  and  _139
REMARK   55  A    between atoms: _142  and  _143
REMARK   56  A    between atoms: _148  and  _150
REMARK   57  A    between atoms: _150  and  _151
REMARK   58  A    between atoms: _150  and  _153
REMARK   59  A    between atoms: _153  and  _154
REMARK   60  A    between atoms: _159  and  _161
REMARK   61  A    between atoms: _161  and  _162
REMARK   62  A    between atoms: _161  and  _164
REMARK   63  A    between atoms: _164  and  _165
REMARK   64  A    between atoms: _168  and  _170
REMARK   65  A    between atoms: _170  and  _171
REMARK   66  A    between atoms: _170  and  _173
REMARK   67  A    between atoms: _173  and  _174
REMARK   68  A    between atoms: _179  and  _181
REMARK   69  A    between atoms: _181  and  _182
REMARK   70  A    between atoms: _181  and  _184
REMARK   71  A    between atoms: _184  and  _185
REMARK   72  A    between atoms: _191  and  _193
REMARK   73  A    between atoms: _193  and  _194
REMARK   74  A    between atoms: _193  and  _196
REMARK   75  A    between atoms: _196  and  _197
REMARK   76  A    between atoms: _203  and  _205
REMARK   77  A    between atoms: _205  and  _206
REMARK   78  A    between atoms: _205  and  _208
REMARK   79  A    between atoms: _208  and  _209
REMARK   80  A    between atoms: _209  and  _210
REMARK   81  A    between atoms: _213  and  _215
REMARK   82  A    between atoms: _215  and  _216
REMARK   83  A    between atoms: _218  and  _220
REMARK   84  A    between atoms: _220  and  _221
REMARK   85  A    between atoms: _220  and  _223
REMARK   86  A    between atoms: _223  and  _224
REMARK   87  A    between atoms: _224  and  _225
REMARK   88  A    between atoms: _225  and  _226
REMARK   89  A    between atoms: _235  and  _237
REMARK   90  A    between atoms: _237  and  _238
REMARK   91  A    between atoms: _237  and  _240
REMARK   92  A    between atoms: _240  and  _241
REMARK   93  A    between atoms: _241  and  _242
REMARK   94  A    between atoms: _245  and  _247
REMARK   95  A    between atoms: _247  and  _248
REMARK   96  A    between atoms: _247  and  _250
REMARK   97  A    between atoms: _250  and  _251
REMARK   98  A    between atoms: _256  and  _258
REMARK   99  A    between atoms: _258  and  _259
REMARK  100  A    between atoms: _258  and  _261
REMARK  101  A    between atoms: _261  and  _262
REMARK  102  A    between atoms: _265  and  _267
REMARK  103  A    between atoms: _267  and  _268
REMARK  104  A    between atoms: _267  and  _270
REMARK  105  A    between atoms: _270  and  _271
REMARK  106  A    between atoms: _274  and  _276
REMARK  107  A    between atoms: _276  and  _277
REMARK  108  A    between atoms: _276  and  _279
REMARK  109  A    between atoms: _279  and  _280
REMARK  110  A    between atoms: _285  and  _287
REMARK  111  A    between atoms: _287  and  _288
REMARK  112  A    between atoms: _287  and  _290
REMARK  113  A    between atoms: _290  and  _291
REMARK  114  A    between atoms: _294  and  _296
REMARK  115  A    between atoms: _296  and  _297
REMARK  116  A    between atoms: _296  and  _299
REMARK  117  A    between atoms: _299  and  _300
REMARK  118  A    between atoms: _305  and  _307
REMARK  119  A    between atoms: _307  and  _308
REMARK  120  A    between atoms: _307  and  _310
REMARK  121  A    between atoms: _310  and  _311
REMARK  122  A    between atoms: _316  and  _318
REMARK  123  A    between atoms: _318  and  _319
REMARK  124  A    between atoms: _318  and  _321
REMARK  125  A    between atoms: _321  and  _322
REMARK  126  A    between atoms: _325  and  _327
REMARK  127  A    between atoms: _327  and  _328
REMARK  128  A    between atoms: _327  and  _330
REMARK  129  A    between atoms: _333  and  _335
REMARK  130  A    between atoms: _335  and  _336
REMARK  131  A    between atoms: _335  and  _338
REMARK  132  A    between atoms: _338  and  _339
REMARK  133  A    between atoms: _342  and  _344
REMARK  134  A    between atoms: _344  and  _345
REMARK  135  A    between atoms: _344  and  _347
REMARK  136  A    between atoms: _347  and  _348
REMARK  137  A    between atoms: _348  and  _349
REMARK  138  A    between atoms: _352  and  _354
REMARK  139  A    between atoms: _354  and  _355
REMARK  140  A    between atoms: _358  and  _360
REMARK  141  A    between atoms: _360  and  _361
REMARK  142  A    between atoms: _360  and  _363
REMARK  143  A    between atoms: _363  and  _364
REMARK  144  A    between atoms: _367  and  _369
REMARK  145  A    between atoms: _369  and  _370
REMARK  146  A    between atoms: _369  and  _372
REMARK  147  A    between atoms: _372  and  _373
REMARK  148  A    between atoms: _373  and  _374
REMARK  149  A    between atoms: _377  and  _379
REMARK  150  A    between atoms: _379  and  _380
REMARK  151  A    between atoms: _379  and  _382
REMARK  152  A    between atoms: _382  and  _383
REMARK  153  A    between atoms: _383  and  _384
REMARK  154  A    between atoms: _384  and  _385
REMARK  155  A    between atoms: _394  and  _396
REMARK  156  A    between atoms: _396  and  _397
REMARK  157  A    between atoms: _396  and  _399
REMARK  158  A    between atoms: _399  and  _400
REMARK  159  A    between atoms: _410  and  _412
REMARK  160  A    between atoms: _412  and  _413
REMARK  161  A    between atoms: _412  and  _415
REMARK  162  A    between atoms: _415  and  _416
REMARK  163  A    between atoms: _421  and  _423
REMARK  164  A    between atoms: _423  and  _424
REMARK  165  A    between atoms: _426  and  _428
REMARK  166  A    between atoms: _428  and  _429
REMARK  167  A    between atoms: _428  and  _431
REMARK  168  A    between atoms: _434  and  _436
REMARK  169  A    between atoms: _436  and  _437
REMARK  170  A    between atoms: _440  and  _442
REMARK  171  A    between atoms: _442  and  _443
REMARK  172  A    between atoms: _442  and  _445
REMARK  173  A    between atoms: _445  and  _446
REMARK  174  A    between atoms: _451  and  _453
REMARK  175  A    between atoms: _453  and  _454
REMARK  176  A    between atoms: _453  and  _456
REMARK  177  A    between atoms: _456  and  _457
REMARK  178  A    between atoms: _457  and  _458
REMARK  179  A    between atoms: _458  and  _459
REMARK  180  A    between atoms: _459  and  _460
REMARK  181  A    between atoms: _464  and  _466
REMARK  182  A    between atoms: _466  and  _467
REMARK  183  A    between atoms: _466  and  _469
REMARK  184  A    between atoms: _469  and  _470
REMARK  185  A    between atoms: _475  and  _477
REMARK  186  A    between atoms: _477  and  _478
REMARK  187  A    between atoms: _480  and  _482
REMARK  188  A    between atoms: _482  and  _483
REMARK  189  A    between atoms: _482  and  _485
REMARK  190  A    between atoms: _485  and  _486
REMARK  191  A    between atoms: _486  and  _487
REMARK  192  A    between atoms: _487  and  _488
REMARK  193  A    between atoms: _488  and  _489
REMARK  194  A    between atoms: _493  and  _495
REMARK  195  A    between atoms: _495  and  _496
REMARK  196  A    between atoms: _495  and  _498
REMARK  197  A    between atoms: _498  and  _499
REMARK  198  A    between atoms: _499  and  _500
REMARK  199  A    between atoms: _500  and  _501
REMARK  200  A    between atoms: _510  and  _512
REMARK  201  A    between atoms: _512  and  _513
REMARK  202  A    between atoms: _512  and  _515
REMARK  203  A    between atoms: _515  and  _516
REMARK  204  A    between atoms: _521  and  _522
REMARK  205  A    between atoms: _524  and  _526
REMARK  206  A    between atoms: _526  and  _527
REMARK  207  A    between atoms: _526  and  _529
REMARK  208  A    between atoms: _529  and  _530
REMARK  209  A    between atoms: _530  and  _531
REMARK  210  A    between atoms: _531  and  _532
REMARK  211  A    between atoms: _532  and  _533
REMARK  212  A    between atoms: _537  and  _539
REMARK  213  A    between atoms: _539  and  _540
REMARK  214  A    between atoms: _539  and  _542
REMARK  215  A    between atoms: _542  and  _543
REMARK  216  A    between atoms: _545  and  _547
REMARK  217  A    between atoms: _547  and  _548
REMARK  218  A    between atoms: _547  and  _550
REMARK  219  A    between atoms: _550  and  _551
REMARK  220  A    between atoms: _554  and  _556
REMARK  221  A    between atoms: _556  and  _557
REMARK  222  A    between atoms: _556  and  _559
REMARK  223  A    between atoms: _559  and  _560
REMARK  224  A    between atoms: _560  and  _561
REMARK  225  A    between atoms: _564  and  _566
REMARK  226  A    between atoms: _566  and  _567
REMARK  227  A    between atoms: _570  and  _572
REMARK  228  A    between atoms: _572  and  _573
REMARK  229  A    between atoms: _572  and  _575
REMARK  230  A    between atoms: _575  and  _576
REMARK  231  A    between atoms: _578  and  _580
REMARK  232  A    between atoms: _580  and  _581
REMARK  233  A    between atoms: _583  and  _585
REMARK  234  A    between atoms: _585  and  _586
REMARK  235  A    between atoms: _585  and  _588
REMARK  236  A    between atoms: _588  and  _589
REMARK  237  A    between atoms: _592  and  _594
REMARK  238  A    between atoms: _594  and  _595
REMARK  239  A    between atoms: _597  and  _599
REMARK  240  A    between atoms: _599  and  _600
REMARK  241  A    between atoms: _599  and  _602
REMARK  242  A    between atoms: _602  and  _603
REMARK  243  A    between atoms: _608  and  _610
REMARK  244  A    between atoms: _610  and  _611
REMARK  245  A    between atoms: _610  and  _613
REMARK  246  A    between atoms: _613  and  _614
REMARK  247  A    between atoms: _614  and  _615
REMARK  248  A    between atoms: _622  and  _623
REMARK  249  A    between atoms: _623  and  _639
REMARK  250  A    between atoms: _624  and  _626
REMARK  251  A    between atoms: _626  and  _627
REMARK  252  A    between atoms: _627  and  _628
REMARK  253  A    between atoms: _632  and  _634
REMARK  254  A    between atoms: _634  and  _635
REMARK  255  A    between atoms: _634  and  _642
REMARK  256  A    between atoms: _635  and  _636
REMARK  257  A    between atoms: _636  and  _637
REMARK  258  A    between atoms: _637  and  _638
REMARK  259  A    between atoms: _638  and  _639
REMARK  260  A    between atoms: _644  and  _646
REMARK  261  A    between atoms: _646  and  _647
REMARK  262  A    between atoms: _646  and  _649
REMARK  263  A    between atoms: _649  and  _650
REMARK  264  A    between atoms: _653  and  _655
REMARK  265  A    between atoms: _655  and  _656
REMARK  266  A    between atoms: _658  and  _660
REMARK  267  A    between atoms: _660  and  _661
REMARK  268  A    between atoms: _664  and  _666
REMARK  269  A    between atoms: _666  and  _667
REMARK  270  A    between atoms: _666  and  _669
REMARK  271  A    between atoms: _669  and  _670
REMARK  272  A    between atoms: _675  and  _676
REMARK                            x       y       z     vdW  Elec       q    Type
REMARK                         _______ _______ _______ _____ _____    ______ ____
ROOT
ATOM      1  O   HOH     1      37.126  26.553  24.310  0.00  0.00    +0.000 OA
ENDROOT
TORSDOF 0
REMARK  Name = ../refined-set-2016/3l7a/3l7a_pocket.pdb
REMARK  272 active torsions:
REMARK  status: ('A' for Active; 'I' for Inactive)
REMARK    1  A    between atoms: _1  and  _3
REMARK    2  A    between atoms: _3  and  _4
REMARK    3  A    between atoms: _3  and  _6
REMARK    4  A    between atoms: _6  and  _7
REMARK    5  A    between atoms: _12  and  _13
REMARK    6  A    between atoms: _15  and  _17
REMARK    7  A    between atoms: _17  and  _18
REMARK    8  A    between atoms: _17  and  _20
REMARK    9  A    between atoms: _20  and  _21
REMARK   10  A    between atoms: _24  and  _26
REMARK   11  A    between atoms: _26  and  _27
REMARK   12  A    between atoms: _26  and  _29
REMARK   13  A    between atoms: _29  and  _30
REMARK   14  A    between atoms: _30  and  _31
REMARK   15  A    between atoms: _34  and  _36
REMARK   16  A    between atoms: _36  and  _37
REMARK   17  A    between atoms: _36  and  _39
REMARK   18  A    between atoms: _39  and  _40
REMARK   19  A    between atoms: _45  and  _46
REMARK   20  A    between atoms: _48  and  _50
REMARK   21  A    between atoms: _50  and  _51
REMARK   22  A    between atoms: _50  and  _53
REMARK   23  A    between atoms: _53  and  _54
REMARK   24  A    between atoms: _59  and  _61
REMARK   25  A    between atoms: _61  and  _62
REMARK   26  A    between atoms: _64  and  _66
REMARK   27  A    between atoms: _66  and  _67
REMARK   28  A    between atoms: _69  and  _71
REMARK   29  A    between atoms: _71  and  _72
REMARK   30  A    between atoms: _71  and  _74
REMARK   31  A    between atoms: _74  and  _75
REMARK   32  A    between atoms: _78  and  _80
REMARK   33  A    between atoms: _80  and  _81
REMARK   34  A    between atoms: _83  and  _85
REMARK   35  A    between atoms: _85  and  _86
REMARK   36  A    between atoms: _85  and  _88
REMARK   37  A    between atoms: _88  and  _89
REMARK   38  A    between atoms: _89  and  _90
REMARK   39  A    between atoms: _90  and  _91
REMARK   40  A    between atoms: _100  and  _102
REMARK   41  A    between atoms: _102  and  _103
REMARK   42  A    between atoms: _102  and  _105
REMARK   43  A    between atoms: _105  and  _106
REMARK   44  A    between atoms: _109  and  _111
REMARK   45  A    between atoms: _111  and  _112
REMARK   46  A    between atoms: _115  and  _117
REMARK   47  A    between atoms: _117  and  _118
REMARK   48  A    between atoms: _117  and  _120
REMARK   49  A    between atoms: _120  and  _121
REMARK   50  A    between atoms: _127  and  _129
REMARK   51  A    between atoms: _129  and  _130
REMARK   52  A    between atoms: _129  and  _132
REMARK   53  A    between atoms: _132  and  _133
REMARK   54  A    between atoms: _138  and  _139
REMARK   55  A    between atoms: _142  and  _143
REMARK   56  A    between atoms: _148  and  _150
REMARK   57  A    between atoms: _150  and  _151
REMARK   58  A    between atoms: _150  and  _153
REMARK   59  A    between atoms: _153  and  _154
REMARK   60  A    between atoms: _159  and  _161
REMARK   61  A    between atoms: _161  and  _162
REMARK   62  A    between atoms: _161  and  _164
REMARK   63  A    between atoms: _164  and  _165
REMARK   64  A    between atoms: _168  and  _170
REMARK   65  A    between atoms: _170  and  _171
REMARK   66  A    between atoms: _170  and  _173
REMARK   67  A    between atoms: _173  and  _174
REMARK   68  A    between atoms: _179  and  _181
REMARK   69  A    between atoms: _181  and  _182
REMARK   70  A    between atoms: _181  and  _184
REMARK   71  A    between atoms: _184  and  _185
REMARK   72  A    between atoms: _191  and  _193
REMARK   73  A    between atoms: _193  and  _194
REMARK   74  A    between atoms: _193  and  _196
REMARK   75  A    between atoms: _196  and  _197
REMARK   76  A    between atoms: _203  and  _205
REMARK   77  A    between atoms: _205  and  _206
REMARK   78  A    between atoms: _205  and  _208
REMARK   79  A    between atoms: _208  and  _209
REMARK   80  A    between atoms: _209  and  _210
REMARK   81  A    between atoms: _213  and  _215
REMARK   82  A    between atoms: _215  and  _216
REMARK   83  A    between atoms: _218  and  _220
REMARK   84  A    between atoms: _220  and  _221
REMARK   85  A    between atoms: _220  and  _223
REMARK   86  A    between atoms: _223  and  _224
REMARK   87  A    between atoms: _224  and  _225
REMARK   88  A    between atoms: _225  and  _226
REMARK   89  A    between atoms: _235  and  _237
REMARK   90  A    between atoms: _237  and  _238
REMARK   91  A    between atoms: _237  and  _240
REMARK   92  A    between atoms: _240  and  _241
REMARK   93  A    between atoms: _241  and  _242
REMARK   94  A    between atoms: _245  and  _247
REMARK   95  A    between atoms: _247  and  _248
REMARK   96  A    between atoms: _247  and  _250
REMARK   97  A    between atoms: _250  and  _251
REMARK   98  A    between atoms: _256  and  _258
REMARK   99  A    between atoms: _258  and  _259
REMARK  100  A    between atoms: _258  and  _261
REMARK  101  A    between atoms: _261  and  _262
REMARK  102  A    between atoms: _265  and  _267
REMARK  103  A    between atoms: _267  and  _268
REMARK  104  A    between atoms: _267  and  _270
REMARK  105  A    between atoms: _270  and  _271
REMARK  106  A    between atoms: _274  and  _276
REMARK  107  A    between atoms: _276  and  _277
REMARK  108  A    between atoms: _276  and  _279
REMARK  109  A    between atoms: _279  and  _280
REMARK  110  A    between atoms: _285  and  _287
REMARK  111  A    between atoms: _287  and  _288
REMARK  112  A    between atoms: _287  and  _290
REMARK  113  A    between atoms: _290  and  _291
REMARK  114  A    between atoms: _294  and  _296
REMARK  115  A    between atoms: _296  and  _297
REMARK  116  A    between atoms: _296  and  _299
REMARK  117  A    between atoms: _299  and  _300
REMARK  118  A    between atoms: _305  and  _307
REMARK  119  A    between atoms: _307  and  _308
REMARK  120  A    between atoms: _307  and  _310
REMARK  121  A    between atoms: _310  and  _311
REMARK  122  A    between atoms: _316  and  _318
REMARK  123  A    between atoms: _318  and  _319
REMARK  124  A    between atoms: _318  and  _321
REMARK  125  A    between atoms: _321  and  _322
REMARK  126  A    between atoms: _325  and  _327
REMARK  127  A    between atoms: _327  and  _328
REMARK  128  A    between atoms: _327  and  _330
REMARK  129  A    between atoms: _333  and  _335
REMARK  130  A    between atoms: _335  and  _336
REMARK  131  A    between atoms: _335  and  _338
REMARK  132  A    between atoms: _338  and  _339
REMARK  133  A    between atoms: _342  and  _344
REMARK  134  A    between atoms: _344  and  _345
REMARK  135  A    between atoms: _344  and  _347
REMARK  136  A    between atoms: _347  and  _348
REMARK  137  A    between atoms: _348  and  _349
REMARK  138  A    between atoms: _352  and  _354
REMARK  139  A    between atoms: _354  and  _355
REMARK  140  A    between atoms: _358  and  _360
REMARK  141  A    between atoms: _360  and  _361
REMARK  142  A    between atoms: _360  and  _363
REMARK  143  A    between atoms: _363  and  _364
REMARK  144  A    between atoms: _367  and  _369
REMARK  145  A    between atoms: _369  and  _370
REMARK  146  A    between atoms: _369  and  _372
REMARK  147  A    between atoms: _372  and  _373
REMARK  148  A    between atoms: _373  and  _374
REMARK  149  A    between atoms: _377  and  _379
REMARK  150  A    between atoms: _379  and  _380
REMARK  151  A    between atoms: _379  and  _382
REMARK  152  A    between atoms: _382  and  _383
REMARK  153  A    between atoms: _383  and  _384
REMARK  154  A    between atoms: _384  and  _385
REMARK  155  A    between atoms: _394  and  _396
REMARK  156  A    between atoms: _396  and  _397
REMARK  157  A    between atoms: _396  and  _399
REMARK  158  A    between atoms: _399  and  _400
REMARK  159  A    between atoms: _410  and  _412
REMARK  160  A    between atoms: _412  and  _413
REMARK  161  A    between atoms: _412  and  _415
REMARK  162  A    between atoms: _415  and  _416
REMARK  163  A    between atoms: _421  and  _423
REMARK  164  A    between atoms: _423  and  _424
REMARK  165  A    between atoms: _426  and  _428
REMARK  166  A    between atoms: _428  and  _429
REMARK  167  A    between atoms: _428  and  _431
REMARK  168  A    between atoms: _434  and  _436
REMARK  169  A    between atoms: _436  and  _437
REMARK  170  A    between atoms: _440  and  _442
REMARK  171  A    between atoms: _442  and  _443
REMARK  172  A    between atoms: _442  and  _445
REMARK  173  A    between atoms: _445  and  _446
REMARK  174  A    between atoms: _451  and  _453
REMARK  175  A    between atoms: _453  and  _454
REMARK  176  A    between atoms: _453  and  _456
REMARK  177  A    between atoms: _456  and  _457
REMARK  178  A    between atoms: _457  and  _458
REMARK  179  A    between atoms: _458  and  _459
REMARK  180  A    between atoms: _459  and  _460
REMARK  181  A    between atoms: _464  and  _466
REMARK  182  A    between atoms: _466  and  _467
REMARK  183  A    between atoms: _466  and  _469
REMARK  184  A    between atoms: _469  and  _470
REMARK  185  A    between atoms: _475  and  _477
REMARK  186  A    between atoms: _477  and  _478
REMARK  187  A    between atoms: _480  and  _482
REMARK  188  A    between atoms: _482  and  _483
REMARK  189  A    between atoms: _482  and  _485
REMARK  190  A    between atoms: _485  and  _486
REMARK  191  A    between atoms: _486  and  _487
REMARK  192  A    between atoms: _487  and  _488
REMARK  193  A    between atoms: _488  and  _489
REMARK  194  A    between atoms: _493  and  _495
REMARK  195  A    between atoms: _495  and  _496
REMARK  196  A    between atoms: _495  and  _498
REMARK  197  A    between atoms: _498  and  _499
REMARK  198  A    between atoms: _499  and  _500
REMARK  199  A    between atoms: _500  and  _501
REMARK  200  A    between atoms: _510  and  _512
REMARK  201  A    between atoms: _512  and  _513
REMARK  202  A    between atoms: _512  and  _515
REMARK  203  A    between atoms: _515  and  _516
REMARK  204  A    between atoms: _521  and  _522
REMARK  205  A    between atoms: _524  and  _526
REMARK  206  A    between atoms: _526  and  _527
REMARK  207  A    between atoms: _526  and  _529
REMARK  208  A    between atoms: _529  and  _530
REMARK  209  A    between atoms: _530  and  _531
REMARK  210  A    between atoms: _531  and  _532
REMARK  211  A    between atoms: _532  and  _533
REMARK  212  A    between atoms: _537  and  _539
REMARK  213  A    between atoms: _539  and  _540
REMARK  214  A    between atoms: _539  and  _542
REMARK  215  A    between atoms: _542  and  _543
REMARK  216  A    between atoms: _545  and  _547
REMARK  217  A    between atoms: _547  and  _548
REMARK  218  A    between atoms: _547  and  _550
REMARK  219  A    between atoms: _550  and  _551
REMARK  220  A    between atoms: _554  and  _556
REMARK  221  A    between atoms: _556  and  _557
REMARK  222  A    between atoms: _556  and  _559
REMARK  223  A    between atoms: _559  and  _560
REMARK  224  A    between atoms: _560  and  _561
REMARK  225  A    between atoms: _564  and  _566
REMARK  226  A    between atoms: _566  and  _567
REMARK  227  A    between atoms: _570  and  _572
REMARK  228  A    between atoms: _572  and  _573
REMARK  229  A    between atoms: _572  and  _575
REMARK  230  A    between atoms: _575  and  _576
REMARK  231  A    between atoms: _578  and  _580
REMARK  232  A    between atoms: _580  and  _581
REMARK  233  A    between atoms: _583  and  _585
REMARK  234  A    between atoms: _585  and  _586
REMARK  235  A    between atoms: _585  and  _588
REMARK  236  A    between atoms: _588  and  _589
REMARK  237  A    between atoms: _592  and  _594
REMARK  238  A    between atoms: _594  and  _595
REMARK  239  A    between atoms: _597  and  _599
REMARK  240  A    between atoms: _599  and  _600
REMARK  241  A    between atoms: _599  and  _602
REMARK  242  A    between atoms: _602  and  _603
REMARK  243  A    between atoms: _608  and  _610
REMARK  244  A    between atoms: _610  and  _611
REMARK  245  A    between atoms: _610  and  _613
REMARK  246  A    between atoms: _613  and  _614
REMARK  247  A    between atoms: _614  and  _615
REMARK  248  A    between atoms: _622  and  _623
REMARK  249  A    between atoms: _623  and  _639
REMARK  250  A    between atoms: _624  and  _626
REMARK  251  A    between atoms: _626  and  _627
REMARK  252  A    between atoms: _627  and  _628
REMARK  253  A    between atoms: _632  and  _634
REMARK  254  A    between atoms: _634  and  _635
REMARK  255  A    between atoms: _634  and  _642
REMARK  256  A    between atoms: _635  and  _636
REMARK  257  A    between atoms: _636  and  _637
REMARK  258  A    between atoms: _637  and  _638
REMARK  259  A    between atoms: _638  and  _639
REMARK  260  A    between atoms: _644  and  _646
REMARK  261  A    between atoms: _646  and  _647
REMARK  262  A    between atoms: _646  and  _649
REMARK  263  A    between atoms: _649  and  _650
REMARK  264  A    between atoms: _653  and  _655
REMARK  265  A    between atoms: _655  and  _656
REMARK  266  A    between atoms: _658  and  _660
REMARK  267  A    between atoms: _660  and  _661
REMARK  268  A    between atoms: _664  and  _666
REMARK  269  A    between atoms: _666  and  _667
REMARK  270  A    between atoms: _666  and  _669
REMARK  271  A    between atoms: _669  and  _670
REMARK  272  A    between atoms: _675  and  _676
REMARK                            x       y       z     vdW  Elec       q    Type
REMARK                         _______ _______ _______ _____ _____    ______ ____
ROOT
ATOM      1  O   HOH     1      28.829  23.629  19.382  0.00  0.00    +0.000 OA
ENDROOT
TORSDOF 0
REMARK  Name = ../refined-set-2016/3l7a/3l7a_pocket.pdb
REMARK  272 active torsions:
REMARK  status: ('A' for Active; 'I' for Inactive)
REMARK    1  A    between atoms: _1  and  _3
REMARK    2  A    between atoms: _3  and  _4
REMARK    3  A    between atoms: _3  and  _6
REMARK    4  A    between atoms: _6  and  _7
REMARK    5  A    between atoms: _12  and  _13
REMARK    6  A    between atoms: _15  and  _17
REMARK    7  A    between atoms: _17  and  _18
REMARK    8  A    between atoms: _17  and  _20
REMARK    9  A    between atoms: _20  and  _21
REMARK   10  A    between atoms: _24  and  _26
REMARK   11  A    between atoms: _26  and  _27
REMARK   12  A    between atoms: _26  and  _29
REMARK   13  A    between atoms: _29  and  _30
REMARK   14  A    between atoms: _30  and  _31
REMARK   15  A    between atoms: _34  and  _36
REMARK   16  A    between atoms: _36  and  _37
REMARK   17  A    between atoms: _36  and  _39
REMARK   18  A    between atoms: _39  and  _40
REMARK   19  A    between atoms: _45  and  _46
REMARK   20  A    between atoms: _48  and  _50
REMARK   21  A    between atoms: _50  and  _51
REMARK   22  A    between atoms: _50  and  _53
REMARK   23  A    between atoms: _53  and  _54
REMARK   24  A    between atoms: _59  and  _61
REMARK   25  A    between atoms: _61  and  _62
REMARK   26  A    between atoms: _64  and  _66
REMARK   27  A    between atoms: _66  and  _67
REMARK   28  A    between atoms: _69  and  _71
REMARK   29  A    between atoms: _71  and  _72
REMARK   30  A    between atoms: _71  and  _74
REMARK   31  A    between atoms: _74  and  _75
REMARK   32  A    between atoms: _78  and  _80
REMARK   33  A    between atoms: _80  and  _81
REMARK   34  A    between atoms: _83  and  _85
REMARK   35  A    between atoms: _85  and  _86
REMARK   36  A    between atoms: _85  and  _88
REMARK   37  A    between atoms: _88  and  _89
REMARK   38  A    between atoms: _89  and  _90
REMARK   39  A    between atoms: _90  and  _91
REMARK   40  A    between atoms: _100  and  _102
REMARK   41  A    between atoms: _102  and  _103
REMARK   42  A    between atoms: _102  and  _105
REMARK   43  A    between atoms: _105  and  _106
REMARK   44  A    between atoms: _109  and  _111
REMARK   45  A    between atoms: _111  and  _112
REMARK   46  A    between atoms: _115  and  _117
REMARK   47  A    between atoms: _117  and  _118
REMARK   48  A    between atoms: _117  and  _120
REMARK   49  A    between atoms: _120  and  _121
REMARK   50  A    between atoms: _127  and  _129
REMARK   51  A    between atoms: _129  and  _130
REMARK   52  A    between atoms: _129  and  _132
REMARK   53  A    between atoms: _132  and  _133
REMARK   54  A    between atoms: _138  and  _139
REMARK   55  A    between atoms: _142  and  _143
REMARK   56  A    between atoms: _148  and  _150
REMARK   57  A    between atoms: _150  and  _151
REMARK   58  A    between atoms: _150  and  _153
REMARK   59  A    between atoms: _153  and  _154
REMARK   60  A    between atoms: _159  and  _161
REMARK   61  A    between atoms: _161  and  _162
REMARK   62  A    between atoms: _161  and  _164
REMARK   63  A    between atoms: _164  and  _165
REMARK   64  A    between atoms: _168  and  _170
REMARK   65  A    between atoms: _170  and  _171
REMARK   66  A    between atoms: _170  and  _173
REMARK   67  A    between atoms: _173  and  _174
REMARK   68  A    between atoms: _179  and  _181
REMARK   69  A    between atoms: _181  and  _182
REMARK   70  A    between atoms: _181  and  _184
REMARK   71  A    between atoms: _184  and  _185
REMARK   72  A    between atoms: _191  and  _193
REMARK   73  A    between atoms: _193  and  _194
REMARK   74  A    between atoms: _193  and  _196
REMARK   75  A    between atoms: _196  and  _197
REMARK   76  A    between atoms: _203  and  _205
REMARK   77  A    between atoms: _205  and  _206
REMARK   78  A    between atoms: _205  and  _208
REMARK   79  A    between atoms: _208  and  _209
REMARK   80  A    between atoms: _209  and  _210
REMARK   81  A    between atoms: _213  and  _215
REMARK   82  A    between atoms: _215  and  _216
REMARK   83  A    between atoms: _218  and  _220
REMARK   84  A    between atoms: _220  and  _221
REMARK   85  A    between atoms: _220  and  _223
REMARK   86  A    between atoms: _223  and  _224
REMARK   87  A    between atoms: _224  and  _225
REMARK   88  A    between atoms: _225  and  _226
REMARK   89  A    between atoms: _235  and  _237
REMARK   90  A    between atoms: _237  and  _238
REMARK   91  A    between atoms: _237  and  _240
REMARK   92  A    between atoms: _240  and  _241
REMARK   93  A    between atoms: _241  and  _242
REMARK   94  A    between atoms: _245  and  _247
REMARK   95  A    between atoms: _247  and  _248
REMARK   96  A    between atoms: _247  and  _250
REMARK   97  A    between atoms: _250  and  _251
REMARK   98  A    between atoms: _256  and  _258
REMARK   99  A    between atoms: _258  and  _259
REMARK  100  A    between atoms: _258  and  _261
REMARK  101  A    between atoms: _261  and  _262
REMARK  102  A    between atoms: _265  and  _267
REMARK  103  A    between atoms: _267  and  _268
REMARK  104  A    between atoms: _267  and  _270
REMARK  105  A    between atoms: _270  and  _271
REMARK  106  A    between atoms: _274  and  _276
REMARK  107  A    between atoms: _276  and  _277
REMARK  108  A    between atoms: _276  and  _279
REMARK  109  A    between atoms: _279  and  _280
REMARK  110  A    between atoms: _285  and  _287
REMARK  111  A    between atoms: _287  and  _288
REMARK  112  A    between atoms: _287  and  _290
REMARK  113  A    between atoms: _290  and  _291
REMARK  114  A    between atoms: _294  and  _296
REMARK  115  A    between atoms: _296  and  _297
REMARK  116  A    between atoms: _296  and  _299
REMARK  117  A    between atoms: _299  and  _300
REMARK  118  A    between atoms: _305  and  _307
REMARK  119  A    between atoms: _307  and  _308
REMARK  120  A    between atoms: _307  and  _310
REMARK  121  A    between atoms: _310  and  _311
REMARK  122  A    between atoms: _316  and  _318
REMARK  123  A    between atoms: _318  and  _319
REMARK  124  A    between atoms: _318  and  _321
REMARK  125  A    between atoms: _321  and  _322
REMARK  126  A    between atoms: _325  and  _327
REMARK  127  A    between atoms: _327  and  _328
REMARK  128  A    between atoms: _327  and  _330
REMARK  129  A    between atoms: _333  and  _335
REMARK  130  A    between atoms: _335  and  _336
REMARK  131  A    between atoms: _335  and  _338
REMARK  132  A    between atoms: _338  and  _339
REMARK  133  A    between atoms: _342  and  _344
REMARK  134  A    between atoms: _344  and  _345
REMARK  135  A    between atoms: _344  and  _347
REMARK  136  A    between atoms: _347  and  _348
REMARK  137  A    between atoms: _348  and  _349
REMARK  138  A    between atoms: _352  and  _354
REMARK  139  A    between atoms: _354  and  _355
REMARK  140  A    between atoms: _358  and  _360
REMARK  141  A    between atoms: _360  and  _361
REMARK  142  A    between atoms: _360  and  _363
REMARK  143  A    between atoms: _363  and  _364
REMARK  144  A    between atoms: _367  and  _369
REMARK  145  A    between atoms: _369  and  _370
REMARK  146  A    between atoms: _369  and  _372
REMARK  147  A    between atoms: _372  and  _373
REMARK  148  A    between atoms: _373  and  _374
REMARK  149  A    between atoms: _377  and  _379
REMARK  150  A    between atoms: _379  and  _380
REMARK  151  A    between atoms: _379  and  _382
REMARK  152  A    between atoms: _382  and  _383
REMARK  153  A    between atoms: _383  and  _384
REMARK  154  A    between atoms: _384  and  _385
REMARK  155  A    between atoms: _394  and  _396
REMARK  156  A    between atoms: _396  and  _397
REMARK  157  A    between atoms: _396  and  _399
REMARK  158  A    between atoms: _399  and  _400
REMARK  159  A    between atoms: _410  and  _412
REMARK  160  A    between atoms: _412  and  _413
REMARK  161  A    between atoms: _412  and  _415
REMARK  162  A    between atoms: _415  and  _416
REMARK  163  A    between atoms: _421  and  _423
REMARK  164  A    between atoms: _423  and  _424
REMARK  165  A    between atoms: _426  and  _428
REMARK  166  A    between atoms: _428  and  _429
REMARK  167  A    between atoms: _428  and  _431
REMARK  168  A    between atoms: _434  and  _436
REMARK  169  A    between atoms: _436  and  _437
REMARK  170  A    between atoms: _440  and  _442
REMARK  171  A    between atoms: _442  and  _443
REMARK  172  A    between atoms: _442  and  _445
REMARK  173  A    between atoms: _445  and  _446
REMARK  174  A    between atoms: _451  and  _453
REMARK  175  A    between atoms: _453  and  _454
REMARK  176  A    between atoms: _453  and  _456
REMARK  177  A    between atoms: _456  and  _457
REMARK  178  A    between atoms: _457  and  _458
REMARK  179  A    between atoms: _458  and  _459
REMARK  180  A    between atoms: _459  and  _460
REMARK  181  A    between atoms: _464  and  _466
REMARK  182  A    between atoms: _466  and  _467
REMARK  183  A    between atoms: _466  and  _469
REMARK  184  A    between atoms: _469  and  _470
REMARK  185  A    between atoms: _475  and  _477
REMARK  186  A    between atoms: _477  and  _478
REMARK  187  A    between atoms: _480  and  _482
REMARK  188  A    between atoms: _482  and  _483
REMARK  189  A    between atoms: _482  and  _485
REMARK  190  A    between atoms: _485  and  _486
REMARK  191  A    between atoms: _486  and  _487
REMARK  192  A    between atoms: _487  and  _488
REMARK  193  A    between atoms: _488  and  _489
REMARK  194  A    between atoms: _493  and  _495
REMARK  195  A    between atoms: _495  and  _496
REMARK  196  A    between atoms: _495  and  _498
REMARK  197  A    between atoms: _498  and  _499
REMARK  198  A    between atoms: _499  and  _500
REMARK  199  A    between atoms: _500  and  _501
REMARK  200  A    between atoms: _510  and  _512
REMARK  201  A    between atoms: _512  and  _513
REMARK  202  A    between atoms: _512  and  _515
REMARK  203  A    between atoms: _515  and  _516
REMARK  204  A    between atoms: _521  and  _522
REMARK  205  A    between atoms: _524  and  _526
REMARK  206  A    between atoms: _526  and  _527
REMARK  207  A    between atoms: _526  and  _529
REMARK  208  A    between atoms: _529  and  _530
REMARK  209  A    between atoms: _530  and  _531
REMARK  210  A    between atoms: _531  and  _532
REMARK  211  A    between atoms: _532  and  _533
REMARK  212  A    between atoms: _537  and  _539
REMARK  213  A    between atoms: _539  and  _540
REMARK  214  A    between atoms: _539  and  _542
REMARK  215  A    between atoms: _542  and  _543
REMARK  216  A    between atoms: _545  and  _547
REMARK  217  A    between atoms: _547  and  _548
REMARK  218  A    between atoms: _547  and  _550
REMARK  219  A    between atoms: _550  and  _551
REMARK  220  A    between atoms: _554  and  _556
REMARK  221  A    between atoms: _556  and  _557
REMARK  222  A    between atoms: _556  and  _559
REMARK  223  A    between atoms: _559  and  _560
REMARK  224  A    between atoms: _560  and  _561
REMARK  225  A    between atoms: _564  and  _566
REMARK  226  A    between atoms: _566  and  _567
REMARK  227  A    between atoms: _570  and  _572
REMARK  228  A    between atoms: _572  and  _573
REMARK  229  A    between atoms: _572  and  _575
REMARK  230  A    between atoms: _575  and  _576
REMARK  231  A    between atoms: _578  and  _580
REMARK  232  A    between atoms: _580  and  _581
REMARK  233  A    between atoms: _583  and  _585
REMARK  234  A    between atoms: _585  and  _586
REMARK  235  A    between atoms: _585  and  _588
REMARK  236  A    between atoms: _588  and  _589
REMARK  237  A    between atoms: _592  and  _594
REMARK  238  A    between atoms: _594  and  _595
REMARK  239  A    between atoms: _597  and  _599
REMARK  240  A    between atoms: _599  and  _600
REMARK  241  A    between atoms: _599  and  _602
REMARK  242  A    between atoms: _602  and  _603
REMARK  243  A    between atoms: _608  and  _610
REMARK  244  A    between atoms: _610  and  _611
REMARK  245  A    between atoms: _610  and  _613
REMARK  246  A    between atoms: _613  and  _614
REMARK  247  A    between atoms: _614  and  _615
REMARK  248  A    between atoms: _622  and  _623
REMARK  249  A    between atoms: _623  and  _639
REMARK  250  A    between atoms: _624  and  _626
REMARK  251  A    between atoms: _626  and  _627
REMARK  252  A    between atoms: _627  and  _628
REMARK  253  A    between atoms: _632  and  _634
REMARK  254  A    between atoms: _634  and  _635
REMARK  255  A    between atoms: _634  and  _642
REMARK  256  A    between atoms: _635  and  _636
REMARK  257  A    between atoms: _636  and  _637
REMARK  258  A    between atoms: _637  and  _638
REMARK  259  A    between atoms: _638  and  _639
REMARK  260  A    between atoms: _644  and  _646
REMARK  261  A    between atoms: _646  and  _647
REMARK  262  A    between atoms: _646  and  _649
REMARK  263  A    between atoms: _649  and  _650
REMARK  264  A    between atoms: _653  and  _655
REMARK  265  A    between atoms: _655  and  _656
REMARK  266  A    between atoms: _658  and  _660
REMARK  267  A    between atoms: _660  and  _661
REMARK  268  A    between atoms: _664  and  _666
REMARK  269  A    between atoms: _666  and  _667
REMARK  270  A    between atoms: _666  and  _669
REMARK  271  A    between atoms: _669  and  _670
REMARK  272  A    between atoms: _675  and  _676
REMARK                            x       y       z     vdW  Elec       q    Type
REMARK                         _______ _______ _______ _____ _____    ______ ____
ROOT
ATOM      1  O   HOH     1      33.967  32.708  31.792  0.00  0.00    +0.000 OA
ENDROOT
TORSDOF 0
