REMARK  Name = ../refined-set-2016/1rql/1rql_pocket.pdb
REMARK  172 active torsions:
REMARK  status: ('A' for Active; 'I' for Inactive)
REMARK    1  A    between atoms: _1  and  _3
REMARK    2  A    between atoms: _3  and  _4
REMARK    3  A    between atoms: _3  and  _6
REMARK    4  A    between atoms: _6  and  _7
REMARK    5  A    between atoms: _13  and  _15
REMARK    6  A    between atoms: _15  and  _16
REMARK    7  A    between atoms: _15  and  _18
REMARK    8  A    between atoms: _18  and  _19
REMARK    9  A    between atoms: _22  and  _24
REMARK   10  A    between atoms: _24  and  _25
REMARK   11  A    between atoms: _24  and  _27
REMARK   12  A    between atoms: _27  and  _28
REMARK   13  A    between atoms: _38  and  _40
REMARK   14  A    between atoms: _40  and  _41
REMARK   15  A    between atoms: _41  and  _42
REMARK   16  A    between atoms: _41  and  _44
REMARK   17  A    between atoms: _42  and  MG_407
REMARK   18  A    between atoms: _44  and  _46
REMARK   19  A    between atoms: _46  and  _47
REMARK   20  A    between atoms: _49  and  _51
REMARK   21  A    between atoms: _51  and  _52
REMARK   22  A    between atoms: _51  and  _54
REMARK   23  A    between atoms: _54  and  _55
REMARK   24  A    between atoms: _58  and  _60
REMARK   25  A    between atoms: _60  and  _61
REMARK   26  A    between atoms: _60  and  _63
REMARK   27  A    between atoms: _63  and  _64
REMARK   28  A    between atoms: _67  and  _69
REMARK   29  A    between atoms: _69  and  _70
REMARK   30  A    between atoms: _69  and  _72
REMARK   31  A    between atoms: _75  and  _77
REMARK   32  A    between atoms: _77  and  _78
REMARK   33  A    between atoms: _77  and  _80
REMARK   34  A    between atoms: _80  and  _81
REMARK   35  A    between atoms: _84  and  _86
REMARK   36  A    between atoms: _86  and  _87
REMARK   37  A    between atoms: _86  and  _89
REMARK   38  A    between atoms: _91  and  _93
REMARK   39  A    between atoms: _93  and  _94
REMARK   40  A    between atoms: _93  and  _96
REMARK   41  A    between atoms: _96  and  _97
REMARK   42  A    between atoms: _103  and  _105
REMARK   43  A    between atoms: _105  and  _106
REMARK   44  A    between atoms: _110  and  _111
REMARK   45  A    between atoms: _116  and  _118
REMARK   46  A    between atoms: _118  and  _119
REMARK   47  A    between atoms: _118  and  _121
REMARK   48  A    between atoms: _121  and  _122
REMARK   49  A    between atoms: _125  and  _127
REMARK   50  A    between atoms: _127  and  _128
REMARK   51  A    between atoms: _127  and  _130
REMARK   52  A    between atoms: _130  and  _131
REMARK   53  A    between atoms: _137  and  _139
REMARK   54  A    between atoms: _139  and  _140
REMARK   55  A    between atoms: _139  and  _142
REMARK   56  A    between atoms: _142  and  _143
REMARK   57  A    between atoms: _143  and  _144
REMARK   58  A    between atoms: _144  and  _145
REMARK   59  A    between atoms: _155  and  _156
REMARK   60  A    between atoms: _161  and  _163
REMARK   61  A    between atoms: _163  and  _164
REMARK   62  A    between atoms: _163  and  _166
REMARK   63  A    between atoms: _166  and  _167
REMARK   64  A    between atoms: _167  and  _168
REMARK   65  A    between atoms: _170  and  _172
REMARK   66  A    between atoms: _172  and  _173
REMARK   67  A    between atoms: _175  and  _177
REMARK   68  A    between atoms: _177  and  _178
REMARK   69  A    between atoms: _177  and  _180
REMARK   70  A    between atoms: _180  and  _181
REMARK   71  A    between atoms: _184  and  _186
REMARK   72  A    between atoms: _186  and  _187
REMARK   73  A    between atoms: _186  and  _189
REMARK   74  A    between atoms: _189  and  _190
REMARK   75  A    between atoms: _193  and  _195
REMARK   76  A    between atoms: _195  and  _196
REMARK   77  A    between atoms: _195  and  _198
REMARK   78  A    between atoms: _198  and  _199
REMARK   79  A    between atoms: _199  and  _200
REMARK   80  A    between atoms: _200  and  _201
REMARK   81  A    between atoms: _201  and  _202
REMARK   82  A    between atoms: _206  and  _208
REMARK   83  A    between atoms: _208  and  _209
REMARK   84  A    between atoms: _208  and  _211
REMARK   85  A    between atoms: _211  and  _212
REMARK   86  A    between atoms: _217  and  _219
REMARK   87  A    between atoms: _219  and  _220
REMARK   88  A    between atoms: _219  and  _222
REMARK   89  A    between atoms: _222  and  _223
REMARK   90  A    between atoms: _229  and  _231
REMARK   91  A    between atoms: _231  and  _232
REMARK   92  A    between atoms: _231  and  _234
REMARK   93  A    between atoms: _234  and  _235
REMARK   94  A    between atoms: _238  and  _240
REMARK   95  A    between atoms: _240  and  _241
REMARK   96  A    between atoms: _240  and  _243
REMARK   97  A    between atoms: _243  and  _244
REMARK   98  A    between atoms: _247  and  _249
REMARK   99  A    between atoms: _249  and  _250
REMARK  100  A    between atoms: _249  and  _252
REMARK  101  A    between atoms: _252  and  _253
REMARK  102  A    between atoms: _256  and  _258
REMARK  103  A    between atoms: _258  and  _259
REMARK  104  A    between atoms: _261  and  _263
REMARK  105  A    between atoms: _263  and  _264
REMARK  106  A    between atoms: _263  and  _266
REMARK  107  A    between atoms: _266  and  _267
REMARK  108  A    between atoms: _272  and  _273
REMARK  109  A    between atoms: _275  and  _277
REMARK  110  A    between atoms: _277  and  _278
REMARK  111  A    between atoms: _277  and  _280
REMARK  112  A    between atoms: _280  and  _281
REMARK  113  A    between atoms: _284  and  _286
REMARK  114  A    between atoms: _286  and  _287
REMARK  115  A    between atoms: _286  and  _289
REMARK  116  A    between atoms: _289  and  _290
REMARK  117  A    between atoms: _290  and  _291
REMARK  118  A    between atoms: _293  and  _295
REMARK  119  A    between atoms: _295  and  _296
REMARK  120  A    between atoms: _295  and  _298
REMARK  121  A    between atoms: _298  and  _299
REMARK  122  A    between atoms: _299  and  _300
REMARK  123  A    between atoms: _302  and  _304
REMARK  124  A    between atoms: _304  and  _305
REMARK  125  A    between atoms: _304  and  _307
REMARK  126  A    between atoms: _310  and  _312
REMARK  127  A    between atoms: _312  and  _313
REMARK  128  A    between atoms: _312  and  _315
REMARK  129  A    between atoms: _315  and  _316
REMARK  130  A    between atoms: _316  and  _317
REMARK  131  A    between atoms: _317  and  _318
REMARK  132  A    between atoms: _327  and  _329
REMARK  133  A    between atoms: _329  and  _330
REMARK  134  A    between atoms: _329  and  _332
REMARK  135  A    between atoms: _332  and  _333
REMARK  136  A    between atoms: _333  and  _334
REMARK  137  A    between atoms: _336  and  _338
REMARK  138  A    between atoms: _338  and  _339
REMARK  139  A    between atoms: _338  and  _341
REMARK  140  A    between atoms: _341  and  _342
REMARK  141  A    between atoms: _342  and  _343
REMARK  142  A    between atoms: _343  and  _344
REMARK  143  A    between atoms: _344  and  _345
REMARK  144  A    between atoms: _349  and  _351
REMARK  145  A    between atoms: _351  and  _352
REMARK  146  A    between atoms: _354  and  _356
REMARK  147  A    between atoms: _356  and  _357
REMARK  148  A    between atoms: _356  and  _359
REMARK  149  A    between atoms: _359  and  _360
REMARK  150  A    between atoms: _360  and  _361
REMARK  151  A    between atoms: _361  and  MG_407
REMARK  152  A    between atoms: _363  and  _365
REMARK  153  A    between atoms: _365  and  _366
REMARK  154  A    between atoms: _365  and  _368
REMARK  155  A    between atoms: _368  and  _369
REMARK  156  A    between atoms: _372  and  _374
REMARK  157  A    between atoms: _374  and  _375
REMARK  158  A    between atoms: _374  and  _377
REMARK  159  A    between atoms: _377  and  _378
REMARK  160  A    between atoms: _380  and  _382
REMARK  161  A    between atoms: _382  and  _383
REMARK  162  A    between atoms: _382  and  _385
REMARK  163  A    between atoms: _385  and  _386
REMARK  164  A    between atoms: _389  and  _391
REMARK  165  A    between atoms: _391  and  _392
REMARK  166  A    between atoms: _391  and  _394
REMARK  167  A    between atoms: _394  and  _395
REMARK  168  A    between atoms: _395  and  _396
REMARK  169  A    between atoms: _399  and  _401
REMARK  170  A    between atoms: _401  and  _402
REMARK  171  A    between atoms: _401  and  _404
REMARK  172  A    between atoms: _404  and  _405
REMARK                            x       y       z     vdW  Elec       q    Type
REMARK                         _______ _______ _______ _____ _____    ______ ____
ROOT
ATOM      1  C   UNK A   2      88.485  -8.914  11.159  0.00  0.00    +0.000 C 
ENDROOT
BRANCH   1   2
ATOM      2  N   UNK A   0      89.629  -9.382  11.668  0.00  0.00    +0.000 NA
ATOM      3  H   UNK A   0      90.103 -10.181  11.201  0.00  0.00    +0.000 HD
BRANCH   2   4
ATOM      4  C   UNK A   0      90.228  -8.798  12.863  0.00  0.00    +0.000 C 
BRANCH   4   5
ATOM      5  C   UNK A   0      89.457  -9.024  14.165  0.00  0.00    +0.000 C 
ATOM      6  O   UNK A   0      89.957  -8.700  15.252  0.00  0.00    +0.000 OA
ATOM      7  N   THR A   1      88.244  -9.581  14.064  0.00  0.00    +0.000 N 
ATOM      8  H   THR A   1      87.892  -9.843  13.121  0.00  0.00    +0.000 HD
BRANCH   7   9
ATOM      9  CA  THR A   1      87.392  -9.837  15.227  0.00  0.00    +0.000 C 
BRANCH   9  10
ATOM     10  C   THR A   1      86.998 -11.310  15.408  0.00  0.00    +0.000 C 
ATOM     11  O   THR A   1      87.103 -11.850  16.511  0.00  0.00    +0.000 OA
ATOM     12  N   UNK A   2      86.527 -11.961  14.348  0.00  0.00    +0.000 N 
ATOM     13  H   UNK A   2      86.408 -11.464  13.442  0.00  0.00    +0.000 HD
BRANCH  12  14
ATOM     14  C   UNK A   2      86.176 -13.379  14.457  0.00  0.00    +0.000 C 
BRANCH  14  15
ATOM     15  C   UNK A   2      87.020 -14.201  13.494  0.00  0.00    +0.000 C 
ATOM     16  O   UNK A   2      87.184 -15.411  13.673  0.00  0.00    +0.000 OA
ATOM     17  N   VAL A   3      87.574 -13.547  12.481  0.00  0.00    +0.000 N 
ATOM     18  H   VAL A   3      87.407 -12.526  12.375  0.00  0.00    +0.000 HD
BRANCH  17  19
ATOM     19  CA  VAL A   3      88.417 -14.245  11.512  0.00  0.00    +0.000 C 
BRANCH  19  20
ATOM     20  C   VAL A   3      89.535 -13.346  11.019  0.00  0.00    +0.000 C 
ATOM     21  O   VAL A   3      89.546 -12.146  11.273  0.00  0.00    +0.000 OA
ATOM     22  N   ASP A   4      90.479 -13.946  10.310  0.00  0.00    +0.000 N 
ATOM     23  H   ASP A   4      90.419 -14.972  10.150  0.00  0.00    +0.000 HD
BRANCH  22  24
ATOM     24  CA  ASP A   4      91.595 -13.206   9.751  0.00  0.00    +0.000 C 
BRANCH  24  25
ATOM     25  C   ASP A   4      92.341 -12.443  10.839  0.00  0.00    +0.000 C 
ATOM     26  O   ASP A   4      92.157 -11.236  10.981  0.00  0.00    +0.000 OA
ENDBRANCH  24  25
BRANCH  24  27
ATOM     27  CB  ASP A   4      91.079 -12.214   8.703  0.00  0.00    +0.000 C 
BRANCH  27  28
ATOM     28  CG  ASP A   4      92.180 -11.661   7.839  0.00  0.00    +0.000 C 
ATOM     29  OD2 ASP A   4      93.326 -11.528   8.325  0.00  0.00    +0.000 OA
ATOM     30  OD1 ASP A   4      91.900 -11.354   6.664  0.00  0.00    +0.000 OA
ENDBRANCH  27  28
ENDBRANCH  24  27
ENDBRANCH  22  24
ENDBRANCH  19  20
BRANCH  19  31
ATOM     31  CB  VAL A   3      87.620 -14.727  10.259  0.00  0.00    +0.000 C 
ATOM     32  CG2 VAL A   3      86.651 -15.857  10.632  0.00  0.00    +0.000 C 
ATOM     33  CG1 VAL A   3      86.869 -13.552   9.644  0.00  0.00    +0.000 C 
ENDBRANCH  19  31
ENDBRANCH  17  19
ENDBRANCH  14  15
BRANCH  14  34
ATOM     34  C   UNK A   2      84.664 -13.648  14.195  0.00  0.00    +0.000 C 
ATOM     35  C   UNK A   2      83.811 -12.851  15.172  0.00  0.00    +0.000 C 
BRANCH  34  36
ATOM     36  O   UNK A   2      84.315 -13.279  12.854  0.00  0.00    +0.000 OA
ATOM     37  H   UNK A   2      83.353 -13.456  12.704  0.00  0.00    +0.000 HD
ENDBRANCH  34  36
ENDBRANCH  14  34
ENDBRANCH  12  14
ENDBRANCH   9  10
BRANCH   9  38
ATOM     38  CB  THR A   1      86.120  -8.969  15.159  0.00  0.00    +0.000 C 
ATOM     39  CG2 THR A   1      85.286  -9.105  16.422  0.00  0.00    +0.000 C 
BRANCH  38  40
ATOM     40  OG1 THR A   1      86.505  -7.599  15.026  0.00  0.00    +0.000 OA
ATOM     41  HG1 THR A   1      87.035  -7.485  14.197  0.00  0.00    +0.000 HD
ENDBRANCH  38  40
ENDBRANCH   9  38
ENDBRANCH   7   9
ENDBRANCH   4   5
ENDBRANCH   2   4
ENDBRANCH   1   2
BRANCH   1  42
ATOM     42  C   UNK A   2      87.948  -9.620   9.908  0.00  0.00    +0.000 C 
ATOM     43  C   UNK A   2      88.453  -8.943   8.632  0.00  0.00    +0.000 C 
BRANCH  42  46
ATOM     44  C   UNK A   2      85.834 -10.179  10.952  0.00  0.00    +0.000 C 
ATOM     45  O   UNK A   2      86.421 -10.538  11.971  0.00  0.00    +0.000 OA
ATOM     46  N   UNK A   2      86.485  -9.699   9.895  0.00  0.00    +0.000 N 
ATOM     47  H   UNK A   2      85.955  -9.380   9.059  0.00  0.00    +0.000 HD
BRANCH  44  48
ATOM     48  C   UNK A   2      84.309 -10.275  10.881  0.00  0.00    +0.000 C 
BRANCH  48  51
ATOM     49  C   UNK A   2      83.198  -9.070  12.669  0.00  0.00    +0.000 C 
ATOM     50  O   UNK A   2      83.369 -10.000  13.443  0.00  0.00    +0.000 OA
ATOM     51  N   UNK A   2      83.609  -9.108  11.408  0.00  0.00    +0.000 N 
ATOM     52  H   UNK A   2      83.430  -8.294  10.786  0.00  0.00    +0.000 HD
BRANCH  49  53
ATOM     53  C   UNK A   2      82.495  -7.806  13.163  0.00  0.00    +0.000 C 
BRANCH  53  55
ATOM     54  C   UNK A   2      80.864  -8.989  14.515  0.00  0.00    +0.000 C 
ATOM     55  N   UNK A   2      81.959  -8.246  14.440  0.00  0.00    +0.000 N 
ATOM     56  H   UNK A   2      82.447  -7.971  15.317  0.00  0.00    +0.000 HD
ATOM     57  O   UNK A   2      80.191  -9.309  13.536  0.00  0.00    +0.000 OA
BRANCH  54  58
ATOM     58  C   UNK A   2      80.496  -9.453  15.908  0.00  0.00    +0.000 C 
BRANCH  58  59
ATOM     59  N   UNK A   2      79.075  -9.412  16.190  0.00  0.00    +0.000 NA
ATOM     60  H   UNK A   2      78.477 -10.214  15.907  0.00  0.00    +0.000 HD
ENDBRANCH  58  59
BRANCH  58  61
ATOM     61  C   UNK A   2      81.048 -10.884  16.048  0.00  0.00    +0.000 C 
BRANCH  61  62
ATOM     62  C   UNK A   2      80.867 -11.487  17.403  0.00  0.00    +0.000 A 
ATOM     63  C   UNK A   2      81.901 -11.441  18.341  0.00  0.00    +0.000 A 
ATOM     64  C   UNK A   2      81.735 -11.965  19.616  0.00  0.00    +0.000 A 
ATOM     65  C   UNK A   2      80.531 -12.542  19.965  0.00  0.00    +0.000 A 
ATOM     66  C   UNK A   2      79.484 -12.601  19.033  0.00  0.00    +0.000 A 
ATOM     67  C   UNK A   2      79.663 -12.072  17.759  0.00  0.00    +0.000 A 
ENDBRANCH  61  62
ENDBRANCH  58  61
ENDBRANCH  54  58
ENDBRANCH  53  55
BRANCH  53  68
ATOM     68  C   UNK A   2      83.536  -6.699  13.372  0.00  0.00    +0.000 C 
BRANCH  68  69
ATOM     69  C   UNK A   2      84.393  -6.497  12.160  0.00  0.00    +0.000 C 
ATOM     70  O   UNK A   2      85.647  -6.472  12.283  0.00  0.00    +0.000 OA
ATOM     71  O   UNK A   2      83.792  -6.364  11.072  0.00  0.00    +0.000 OA
ENDBRANCH  68  69
ENDBRANCH  53  68
ENDBRANCH  49  53
ENDBRANCH  48  51
BRANCH  48  72
ATOM     72  C   UNK A   2      83.851 -10.582   9.450  0.00  0.00    +0.000 C 
BRANCH  72  73
ATOM     73  C   UNK A   2      82.517 -11.303   9.426  0.00  0.00    +0.000 A 
ATOM     74  C   UNK A   2      81.278 -10.760   9.672  0.00  0.00    +0.000 A 
ATOM     75  N   UNK A   2      80.315 -11.742   9.654  0.00  0.00    +0.000 N 
ATOM     76  H   UNK A   2      79.298 -11.594   9.813  0.00  0.00    +0.000 HD
ATOM     77  C   UNK A   2      80.912 -12.947   9.393  0.00  0.00    +0.000 A 
ATOM     78  C   UNK A   2      80.349 -14.230   9.275  0.00  0.00    +0.000 A 
ATOM     79  C   UNK A   2      81.199 -15.277   9.002  0.00  0.00    +0.000 A 
ATOM     80  C   UNK A   2      82.583 -15.079   8.840  0.00  0.00    +0.000 A 
ATOM     81  C   UNK A   2      83.148 -13.799   8.958  0.00  0.00    +0.000 A 
ATOM     82  C   UNK A   2      82.302 -12.711   9.237  0.00  0.00    +0.000 A 
ENDBRANCH  72  73
ENDBRANCH  48  72
ENDBRANCH  44  48
ENDBRANCH  42  46
ENDBRANCH   1  42
BRANCH   1  83
ATOM     83  O   UNK A   2      87.850  -7.986  11.672  0.00  0.00    +0.000 OA
BRANCH  83  84
ATOM     84 MG   UNK A   2      87.982  -5.772  11.074  0.00  0.00    +0.000 Mg
BRANCH  84  85
ATOM     85  O   UNK A   2      87.911  -5.466  13.305  0.00  0.00    +0.000 OA
BRANCH  85  86
ATOM     86  C   UNK A   2      89.092  -5.536  13.713  0.00  0.00    +0.000 C 
ATOM     87  O   UNK A   2      90.076  -5.607  12.951  0.00  0.00    +0.000 OA
BRANCH  86  88
ATOM     88  C   UNK A   2      89.329  -5.529  15.201  0.00  0.00    +0.000 C 
BRANCH  88  89
ATOM     89  C   UNK A   2      88.616  -4.374  15.894  0.00  0.00    +0.000 C 
BRANCH  89  90
ATOM     90  C   UNK A   2      89.109  -3.056  15.282  0.00  0.00    +0.000 C 
ATOM     91  O   UNK A   2      90.316  -2.875  15.084  0.00  0.00    +0.000 OA
ATOM     92  N   VAL A   3      88.199  -2.131  14.988  0.00  0.00    +0.000 N 
ATOM     93  H   VAL A   3      87.194  -2.304  15.190  0.00  0.00    +0.000 HD
BRANCH  92  94
ATOM     94  CA  VAL A   3      88.619  -0.872  14.380  0.00  0.00    +0.000 C 
BRANCH  94  95
ATOM     95  CB  VAL A   3      88.395  -0.897  12.848  0.00  0.00    +0.000 C 
ATOM     96  CG2 VAL A   3      88.934  -2.178  12.265  0.00  0.00    +0.000 C 
BRANCH  95  97
ATOM     97  OG1 VAL A   3      86.991  -0.822  12.560  0.00  0.00    +0.000 OA
ATOM     98  HG1 VAL A   3      86.529  -1.595  12.971  0.00  0.00    +0.000 HD
ENDBRANCH  95  97
ENDBRANCH  94  95
BRANCH  94  99
ATOM     99  C   VAL A   3      87.876   0.321  14.933  0.00  0.00    +0.000 C 
ATOM    100  O   VAL A   3      86.950   0.174  15.723  0.00  0.00    +0.000 OA
ENDBRANCH  94  99
ENDBRANCH  92  94
ENDBRANCH  89  90
BRANCH  89 101
ATOM    101  N   UNK A   2      87.177  -4.587  15.823  0.00  0.00    +0.000 N 
ATOM    102  C   THR A   1      86.432  -4.670  16.922  0.00  0.00    +0.000 C 
ATOM    103  O   THR A   1      86.904  -4.537  18.055  0.00  0.00    +0.000 OA
ATOM    104  H   UNK A   2      86.722  -4.676  14.892  0.00  0.00    +0.000 HD
BRANCH 102 105
ATOM    105  CA  THR A   1      84.944  -4.924  16.716  0.00  0.00    +0.000 C 
BRANCH 105 106
ATOM    106  N   THR A   1      84.216  -5.156  17.952  0.00  0.00    +0.000 NA
ATOM    107  H   THR A   1      84.537  -4.694  18.827  0.00  0.00    +0.000 HD
ENDBRANCH 105 106
ENDBRANCH 102 105
ENDBRANCH  89 101
ENDBRANCH  88  89
ENDBRANCH  86  88
ENDBRANCH  85  86
ENDBRANCH  84  85
ENDBRANCH  83  84
ENDBRANCH   1  83
TORSDOF 46
REMARK  Name = ../refined-set-2016/1rql/1rql_pocket.pdb
REMARK  172 active torsions:
REMARK  status: ('A' for Active; 'I' for Inactive)
REMARK    1  A    between atoms: _1  and  _3
REMARK    2  A    between atoms: _3  and  _4
REMARK    3  A    between atoms: _3  and  _6
REMARK    4  A    between atoms: _6  and  _7
REMARK    5  A    between atoms: _13  and  _15
REMARK    6  A    between atoms: _15  and  _16
REMARK    7  A    between atoms: _15  and  _18
REMARK    8  A    between atoms: _18  and  _19
REMARK    9  A    between atoms: _22  and  _24
REMARK   10  A    between atoms: _24  and  _25
REMARK   11  A    between atoms: _24  and  _27
REMARK   12  A    between atoms: _27  and  _28
REMARK   13  A    between atoms: _38  and  _40
REMARK   14  A    between atoms: _40  and  _41
REMARK   15  A    between atoms: _41  and  _42
REMARK   16  A    between atoms: _41  and  _44
REMARK   17  A    between atoms: _42  and  MG_407
REMARK   18  A    between atoms: _44  and  _46
REMARK   19  A    between atoms: _46  and  _47
REMARK   20  A    between atoms: _49  and  _51
REMARK   21  A    between atoms: _51  and  _52
REMARK   22  A    between atoms: _51  and  _54
REMARK   23  A    between atoms: _54  and  _55
REMARK   24  A    between atoms: _58  and  _60
REMARK   25  A    between atoms: _60  and  _61
REMARK   26  A    between atoms: _60  and  _63
REMARK   27  A    between atoms: _63  and  _64
REMARK   28  A    between atoms: _67  and  _69
REMARK   29  A    between atoms: _69  and  _70
REMARK   30  A    between atoms: _69  and  _72
REMARK   31  A    between atoms: _75  and  _77
REMARK   32  A    between atoms: _77  and  _78
REMARK   33  A    between atoms: _77  and  _80
REMARK   34  A    between atoms: _80  and  _81
REMARK   35  A    between atoms: _84  and  _86
REMARK   36  A    between atoms: _86  and  _87
REMARK   37  A    between atoms: _86  and  _89
REMARK   38  A    between atoms: _91  and  _93
REMARK   39  A    between atoms: _93  and  _94
REMARK   40  A    between atoms: _93  and  _96
REMARK   41  A    between atoms: _96  and  _97
REMARK   42  A    between atoms: _103  and  _105
REMARK   43  A    between atoms: _105  and  _106
REMARK   44  A    between atoms: _110  and  _111
REMARK   45  A    between atoms: _116  and  _118
REMARK   46  A    between atoms: _118  and  _119
REMARK   47  A    between atoms: _118  and  _121
REMARK   48  A    between atoms: _121  and  _122
REMARK   49  A    between atoms: _125  and  _127
REMARK   50  A    between atoms: _127  and  _128
REMARK   51  A    between atoms: _127  and  _130
REMARK   52  A    between atoms: _130  and  _131
REMARK   53  A    between atoms: _137  and  _139
REMARK   54  A    between atoms: _139  and  _140
REMARK   55  A    between atoms: _139  and  _142
REMARK   56  A    between atoms: _142  and  _143
REMARK   57  A    between atoms: _143  and  _144
REMARK   58  A    between atoms: _144  and  _145
REMARK   59  A    between atoms: _155  and  _156
REMARK   60  A    between atoms: _161  and  _163
REMARK   61  A    between atoms: _163  and  _164
REMARK   62  A    between atoms: _163  and  _166
REMARK   63  A    between atoms: _166  and  _167
REMARK   64  A    between atoms: _167  and  _168
REMARK   65  A    between atoms: _170  and  _172
REMARK   66  A    between atoms: _172  and  _173
REMARK   67  A    between atoms: _175  and  _177
REMARK   68  A    between atoms: _177  and  _178
REMARK   69  A    between atoms: _177  and  _180
REMARK   70  A    between atoms: _180  and  _181
REMARK   71  A    between atoms: _184  and  _186
REMARK   72  A    between atoms: _186  and  _187
REMARK   73  A    between atoms: _186  and  _189
REMARK   74  A    between atoms: _189  and  _190
REMARK   75  A    between atoms: _193  and  _195
REMARK   76  A    between atoms: _195  and  _196
REMARK   77  A    between atoms: _195  and  _198
REMARK   78  A    between atoms: _198  and  _199
REMARK   79  A    between atoms: _199  and  _200
REMARK   80  A    between atoms: _200  and  _201
REMARK   81  A    between atoms: _201  and  _202
REMARK   82  A    between atoms: _206  and  _208
REMARK   83  A    between atoms: _208  and  _209
REMARK   84  A    between atoms: _208  and  _211
REMARK   85  A    between atoms: _211  and  _212
REMARK   86  A    between atoms: _217  and  _219
REMARK   87  A    between atoms: _219  and  _220
REMARK   88  A    between atoms: _219  and  _222
REMARK   89  A    between atoms: _222  and  _223
REMARK   90  A    between atoms: _229  and  _231
REMARK   91  A    between atoms: _231  and  _232
REMARK   92  A    between atoms: _231  and  _234
REMARK   93  A    between atoms: _234  and  _235
REMARK   94  A    between atoms: _238  and  _240
REMARK   95  A    between atoms: _240  and  _241
REMARK   96  A    between atoms: _240  and  _243
REMARK   97  A    between atoms: _243  and  _244
REMARK   98  A    between atoms: _247  and  _249
REMARK   99  A    between atoms: _249  and  _250
REMARK  100  A    between atoms: _249  and  _252
REMARK  101  A    between atoms: _252  and  _253
REMARK  102  A    between atoms: _256  and  _258
REMARK  103  A    between atoms: _258  and  _259
REMARK  104  A    between atoms: _261  and  _263
REMARK  105  A    between atoms: _263  and  _264
REMARK  106  A    between atoms: _263  and  _266
REMARK  107  A    between atoms: _266  and  _267
REMARK  108  A    between atoms: _272  and  _273
REMARK  109  A    between atoms: _275  and  _277
REMARK  110  A    between atoms: _277  and  _278
REMARK  111  A    between atoms: _277  and  _280
REMARK  112  A    between atoms: _280  and  _281
REMARK  113  A    between atoms: _284  and  _286
REMARK  114  A    between atoms: _286  and  _287
REMARK  115  A    between atoms: _286  and  _289
REMARK  116  A    between atoms: _289  and  _290
REMARK  117  A    between atoms: _290  and  _291
REMARK  118  A    between atoms: _293  and  _295
REMARK  119  A    between atoms: _295  and  _296
REMARK  120  A    between atoms: _295  and  _298
REMARK  121  A    between atoms: _298  and  _299
REMARK  122  A    between atoms: _299  and  _300
REMARK  123  A    between atoms: _302  and  _304
REMARK  124  A    between atoms: _304  and  _305
REMARK  125  A    between atoms: _304  and  _307
REMARK  126  A    between atoms: _310  and  _312
REMARK  127  A    between atoms: _312  and  _313
REMARK  128  A    between atoms: _312  and  _315
REMARK  129  A    between atoms: _315  and  _316
REMARK  130  A    between atoms: _316  and  _317
REMARK  131  A    between atoms: _317  and  _318
REMARK  132  A    between atoms: _327  and  _329
REMARK  133  A    between atoms: _329  and  _330
REMARK  134  A    between atoms: _329  and  _332
REMARK  135  A    between atoms: _332  and  _333
REMARK  136  A    between atoms: _333  and  _334
REMARK  137  A    between atoms: _336  and  _338
REMARK  138  A    between atoms: _338  and  _339
REMARK  139  A    between atoms: _338  and  _341
REMARK  140  A    between atoms: _341  and  _342
REMARK  141  A    between atoms: _342  and  _343
REMARK  142  A    between atoms: _343  and  _344
REMARK  143  A    between atoms: _344  and  _345
REMARK  144  A    between atoms: _349  and  _351
REMARK  145  A    between atoms: _351  and  _352
REMARK  146  A    between atoms: _354  and  _356
REMARK  147  A    between atoms: _356  and  _357
REMARK  148  A    between atoms: _356  and  _359
REMARK  149  A    between atoms: _359  and  _360
REMARK  150  A    between atoms: _360  and  _361
REMARK  151  A    between atoms: _361  and  MG_407
REMARK  152  A    between atoms: _363  and  _365
REMARK  153  A    between atoms: _365  and  _366
REMARK  154  A    between atoms: _365  and  _368
REMARK  155  A    between atoms: _368  and  _369
REMARK  156  A    between atoms: _372  and  _374
REMARK  157  A    between atoms: _374  and  _375
REMARK  158  A    between atoms: _374  and  _377
REMARK  159  A    between atoms: _377  and  _378
REMARK  160  A    between atoms: _380  and  _382
REMARK  161  A    between atoms: _382  and  _383
REMARK  162  A    between atoms: _382  and  _385
REMARK  163  A    between atoms: _385  and  _386
REMARK  164  A    between atoms: _389  and  _391
REMARK  165  A    between atoms: _391  and  _392
REMARK  166  A    between atoms: _391  and  _394
REMARK  167  A    between atoms: _394  and  _395
REMARK  168  A    between atoms: _395  and  _396
REMARK  169  A    between atoms: _399  and  _401
REMARK  170  A    between atoms: _401  and  _402
REMARK  171  A    between atoms: _401  and  _404
REMARK  172  A    between atoms: _404  and  _405
REMARK                            x       y       z     vdW  Elec       q    Type
REMARK                         _______ _______ _______ _____ _____    ______ ____
ROOT
ATOM      1  C   PHE A   2      95.091  -8.948   5.125  0.00  0.00    +0.241 C 
ATOM      2  N   ALA A   3      93.999  -9.659   4.873  0.00  0.00    -0.297 N 
ATOM      3  H   ALA A   3      93.494 -10.121   5.656  0.00  0.00    +0.150 HD
ATOM      4  O   PHE A   2      95.724  -8.375   4.232  0.00  0.00    -0.273 OA
ENDROOT
BRANCH   2   5
ATOM      5  CA  ALA A   3      93.497  -9.800   3.504  0.00  0.00    +0.149 C 
ATOM      6  CB  ALA A   3      92.072 -10.370   3.535  0.00  0.00    +0.031 C 
BRANCH   5   7
ATOM      7  C   ALA A   3      93.532  -8.525   2.630  0.00  0.00    +0.244 C 
ATOM      8  N   PRO A   4      92.911  -7.423   3.082  0.00  0.00    -0.272 N 
ATOM      9  CD  PRO A   4      92.127  -7.294   4.316  0.00  0.00    +0.094 C 
ATOM     10  CG  PRO A   4      91.059  -6.337   3.886  0.00  0.00    +0.024 C 
ATOM     11  CB  PRO A   4      91.825  -5.328   3.093  0.00  0.00    +0.031 C 
ATOM     12  CA  PRO A   4      92.871  -6.157   2.328  0.00  0.00    +0.152 C 
ATOM     13  O   ALA A   3      94.118  -8.529   1.554  0.00  0.00    -0.273 OA
BRANCH  12  14
ATOM     14  C   PRO A   4      94.177  -5.353   2.185  0.00  0.00    +0.241 C 
ATOM     15  N   LEU A   5      94.989  -5.384   3.241  0.00  0.00    -0.298 N 
ATOM     16  H   LEU A   5      94.711  -5.980   4.047  0.00  0.00    +0.150 HD
ATOM     17  O   PRO A   4      94.421  -4.716   1.154  0.00  0.00    -0.273 OA
BRANCH  15  18
ATOM     18  CA  LEU A   5      96.243  -4.640   3.347  0.00  0.00    +0.137 C 
BRANCH  18  19
ATOM     19  C   LEU A   5      97.105  -4.393   2.115  0.00  0.00    +0.227 C 
ATOM     20  O   LEU A   5      97.295  -3.240   1.701  0.00  0.00    -0.286 OA
ENDBRANCH  18  19
BRANCH  18  21
ATOM     21  CB  LEU A   5      97.121  -5.257   4.439  0.00  0.00    +0.028 C 
BRANCH  21  22
ATOM     22  CG  LEU A   5      98.310  -4.371   4.832  0.00  0.00    +0.002 C 
ATOM     23  CD2 LEU A   5      99.127  -5.021   5.937  0.00  0.00    +0.000 C 
ATOM     24  CD1 LEU A   5      97.787  -3.015   5.285  0.00  0.00    +0.000 C 
ENDBRANCH  21  22
ENDBRANCH  18  21
ENDBRANCH  15  18
ENDBRANCH  12  14
ENDBRANCH   5   7
ENDBRANCH   2   5
BRANCH   1  25
ATOM     25  CA  PHE A   2      95.551  -8.845   6.591  0.00  0.00    +0.153 C 
BRANCH  25  28
ATOM     26  C   CYS A   1      93.902  -8.024   8.188  0.00  0.00    +0.239 C 
ATOM     27  O   CYS A   1      94.143  -6.851   7.900  0.00  0.00    -0.274 OA
ATOM     28  N   PHE A   2      94.528  -9.050   7.618  0.00  0.00    -0.297 N 
ATOM     29  H   PHE A   2      94.285 -10.019   7.908  0.00  0.00    +0.150 HD
BRANCH  26  30
ATOM     30  CA  CYS A   1      92.856  -8.355   9.245  0.00  0.00    +0.156 C 
BRANCH  30  31
ATOM     31  N   CYS A   1      93.533  -8.886  10.429  0.00  0.00    -0.237 NA
ATOM     32  H   CYS A   1      93.130  -9.716  10.909  0.00  0.00    +0.142 HD
ENDBRANCH  30  31
BRANCH  30  33
ATOM     33  CB  CYS A   1      92.066  -7.086   9.617  0.00  0.00    +0.095 C 
ATOM     34  SG  CYS A   1      90.959  -6.390   8.338  0.00  0.00    -0.080 S 
ENDBRANCH  30  33
ENDBRANCH  26  30
ENDBRANCH  25  28
BRANCH  25  35
ATOM     35  CB  PHE A   2      96.730  -9.799   6.823  0.00  0.00    +0.055 C 
BRANCH  35  36
ATOM     36  CG  PHE A   2      97.724  -9.292   7.821  0.00  0.00    -0.020 A 
ATOM     37  CD2 PHE A   2      97.502  -9.434   9.184  0.00  0.00    -0.004 A 
ATOM     38  CE2 PHE A   2      98.425  -8.964  10.111  0.00  0.00    -0.000 A 
ATOM     39  CZ  PHE A   2      99.579  -8.347   9.671  0.00  0.00    -0.000 A 
ATOM     40  CE1 PHE A   2      99.808  -8.198   8.307  0.00  0.00    -0.000 A 
ATOM     41  CD1 PHE A   2      98.882  -8.670   7.395  0.00  0.00    -0.004 A 
ENDBRANCH  35  36
ENDBRANCH  25  35
ENDBRANCH   1  25
TORSDOF 14
REMARK  Name = ../refined-set-2016/1rql/1rql_pocket.pdb
REMARK  172 active torsions:
REMARK  status: ('A' for Active; 'I' for Inactive)
REMARK    1  A    between atoms: _1  and  _3
REMARK    2  A    between atoms: _3  and  _4
REMARK    3  A    between atoms: _3  and  _6
REMARK    4  A    between atoms: _6  and  _7
REMARK    5  A    between atoms: _13  and  _15
REMARK    6  A    between atoms: _15  and  _16
REMARK    7  A    between atoms: _15  and  _18
REMARK    8  A    between atoms: _18  and  _19
REMARK    9  A    between atoms: _22  and  _24
REMARK   10  A    between atoms: _24  and  _25
REMARK   11  A    between atoms: _24  and  _27
REMARK   12  A    between atoms: _27  and  _28
REMARK   13  A    between atoms: _38  and  _40
REMARK   14  A    between atoms: _40  and  _41
REMARK   15  A    between atoms: _41  and  _42
REMARK   16  A    between atoms: _41  and  _44
REMARK   17  A    between atoms: _42  and  MG_407
REMARK   18  A    between atoms: _44  and  _46
REMARK   19  A    between atoms: _46  and  _47
REMARK   20  A    between atoms: _49  and  _51
REMARK   21  A    between atoms: _51  and  _52
REMARK   22  A    between atoms: _51  and  _54
REMARK   23  A    between atoms: _54  and  _55
REMARK   24  A    between atoms: _58  and  _60
REMARK   25  A    between atoms: _60  and  _61
REMARK   26  A    between atoms: _60  and  _63
REMARK   27  A    between atoms: _63  and  _64
REMARK   28  A    between atoms: _67  and  _69
REMARK   29  A    between atoms: _69  and  _70
REMARK   30  A    between atoms: _69  and  _72
REMARK   31  A    between atoms: _75  and  _77
REMARK   32  A    between atoms: _77  and  _78
REMARK   33  A    between atoms: _77  and  _80
REMARK   34  A    between atoms: _80  and  _81
REMARK   35  A    between atoms: _84  and  _86
REMARK   36  A    between atoms: _86  and  _87
REMARK   37  A    between atoms: _86  and  _89
REMARK   38  A    between atoms: _91  and  _93
REMARK   39  A    between atoms: _93  and  _94
REMARK   40  A    between atoms: _93  and  _96
REMARK   41  A    between atoms: _96  and  _97
REMARK   42  A    between atoms: _103  and  _105
REMARK   43  A    between atoms: _105  and  _106
REMARK   44  A    between atoms: _110  and  _111
REMARK   45  A    between atoms: _116  and  _118
REMARK   46  A    between atoms: _118  and  _119
REMARK   47  A    between atoms: _118  and  _121
REMARK   48  A    between atoms: _121  and  _122
REMARK   49  A    between atoms: _125  and  _127
REMARK   50  A    between atoms: _127  and  _128
REMARK   51  A    between atoms: _127  and  _130
REMARK   52  A    between atoms: _130  and  _131
REMARK   53  A    between atoms: _137  and  _139
REMARK   54  A    between atoms: _139  and  _140
REMARK   55  A    between atoms: _139  and  _142
REMARK   56  A    between atoms: _142  and  _143
REMARK   57  A    between atoms: _143  and  _144
REMARK   58  A    between atoms: _144  and  _145
REMARK   59  A    between atoms: _155  and  _156
REMARK   60  A    between atoms: _161  and  _163
REMARK   61  A    between atoms: _163  and  _164
REMARK   62  A    between atoms: _163  and  _166
REMARK   63  A    between atoms: _166  and  _167
REMARK   64  A    between atoms: _167  and  _168
REMARK   65  A    between atoms: _170  and  _172
REMARK   66  A    between atoms: _172  and  _173
REMARK   67  A    between atoms: _175  and  _177
REMARK   68  A    between atoms: _177  and  _178
REMARK   69  A    between atoms: _177  and  _180
REMARK   70  A    between atoms: _180  and  _181
REMARK   71  A    between atoms: _184  and  _186
REMARK   72  A    between atoms: _186  and  _187
REMARK   73  A    between atoms: _186  and  _189
REMARK   74  A    between atoms: _189  and  _190
REMARK   75  A    between atoms: _193  and  _195
REMARK   76  A    between atoms: _195  and  _196
REMARK   77  A    between atoms: _195  and  _198
REMARK   78  A    between atoms: _198  and  _199
REMARK   79  A    between atoms: _199  and  _200
REMARK   80  A    between atoms: _200  and  _201
REMARK   81  A    between atoms: _201  and  _202
REMARK   82  A    between atoms: _206  and  _208
REMARK   83  A    between atoms: _208  and  _209
REMARK   84  A    between atoms: _208  and  _211
REMARK   85  A    between atoms: _211  and  _212
REMARK   86  A    between atoms: _217  and  _219
REMARK   87  A    between atoms: _219  and  _220
REMARK   88  A    between atoms: _219  and  _222
REMARK   89  A    between atoms: _222  and  _223
REMARK   90  A    between atoms: _229  and  _231
REMARK   91  A    between atoms: _231  and  _232
REMARK   92  A    between atoms: _231  and  _234
REMARK   93  A    between atoms: _234  and  _235
REMARK   94  A    between atoms: _238  and  _240
REMARK   95  A    between atoms: _240  and  _241
REMARK   96  A    between atoms: _240  and  _243
REMARK   97  A    between atoms: _243  and  _244
REMARK   98  A    between atoms: _247  and  _249
REMARK   99  A    between atoms: _249  and  _250
REMARK  100  A    between atoms: _249  and  _252
REMARK  101  A    between atoms: _252  and  _253
REMARK  102  A    between atoms: _256  and  _258
REMARK  103  A    between atoms: _258  and  _259
REMARK  104  A    between atoms: _261  and  _263
REMARK  105  A    between atoms: _263  and  _264
REMARK  106  A    between atoms: _263  and  _266
REMARK  107  A    between atoms: _266  and  _267
REMARK  108  A    between atoms: _272  and  _273
REMARK  109  A    between atoms: _275  and  _277
REMARK  110  A    between atoms: _277  and  _278
REMARK  111  A    between atoms: _277  and  _280
REMARK  112  A    between atoms: _280  and  _281
REMARK  113  A    between atoms: _284  and  _286
REMARK  114  A    between atoms: _286  and  _287
REMARK  115  A    between atoms: _286  and  _289
REMARK  116  A    between atoms: _289  and  _290
REMARK  117  A    between atoms: _290  and  _291
REMARK  118  A    between atoms: _293  and  _295
REMARK  119  A    between atoms: _295  and  _296
REMARK  120  A    between atoms: _295  and  _298
REMARK  121  A    between atoms: _298  and  _299
REMARK  122  A    between atoms: _299  and  _300
REMARK  123  A    between atoms: _302  and  _304
REMARK  124  A    between atoms: _304  and  _305
REMARK  125  A    between atoms: _304  and  _307
REMARK  126  A    between atoms: _310  and  _312
REMARK  127  A    between atoms: _312  and  _313
REMARK  128  A    between atoms: _312  and  _315
REMARK  129  A    between atoms: _315  and  _316
REMARK  130  A    between atoms: _316  and  _317
REMARK  131  A    between atoms: _317  and  _318
REMARK  132  A    between atoms: _327  and  _329
REMARK  133  A    between atoms: _329  and  _330
REMARK  134  A    between atoms: _329  and  _332
REMARK  135  A    between atoms: _332  and  _333
REMARK  136  A    between atoms: _333  and  _334
REMARK  137  A    between atoms: _336  and  _338
REMARK  138  A    between atoms: _338  and  _339
REMARK  139  A    between atoms: _338  and  _341
REMARK  140  A    between atoms: _341  and  _342
REMARK  141  A    between atoms: _342  and  _343
REMARK  142  A    between atoms: _343  and  _344
REMARK  143  A    between atoms: _344  and  _345
REMARK  144  A    between atoms: _349  and  _351
REMARK  145  A    between atoms: _351  and  _352
REMARK  146  A    between atoms: _354  and  _356
REMARK  147  A    between atoms: _356  and  _357
REMARK  148  A    between atoms: _356  and  _359
REMARK  149  A    between atoms: _359  and  _360
REMARK  150  A    between atoms: _360  and  _361
REMARK  151  A    between atoms: _361  and  MG_407
REMARK  152  A    between atoms: _363  and  _365
REMARK  153  A    between atoms: _365  and  _366
REMARK  154  A    between atoms: _365  and  _368
REMARK  155  A    between atoms: _368  and  _369
REMARK  156  A    between atoms: _372  and  _374
REMARK  157  A    between atoms: _374  and  _375
REMARK  158  A    between atoms: _374  and  _377
REMARK  159  A    between atoms: _377  and  _378
REMARK  160  A    between atoms: _380  and  _382
REMARK  161  A    between atoms: _382  and  _383
REMARK  162  A    between atoms: _382  and  _385
REMARK  163  A    between atoms: _385  and  _386
REMARK  164  A    between atoms: _389  and  _391
REMARK  165  A    between atoms: _391  and  _392
REMARK  166  A    between atoms: _391  and  _394
REMARK  167  A    between atoms: _394  and  _395
REMARK  168  A    between atoms: _395  and  _396
REMARK  169  A    between atoms: _399  and  _401
REMARK  170  A    between atoms: _401  and  _402
REMARK  171  A    between atoms: _401  and  _404
REMARK  172  A    between atoms: _404  and  _405
REMARK                            x       y       z     vdW  Elec       q    Type
REMARK                         _______ _______ _______ _____ _____    ______ ____
ROOT
ATOM      1  CB  PHE A   1      94.698  -0.767   0.440  0.00  0.00    +0.051 C 
ENDROOT
BRANCH   1   2
ATOM      2  CG  PHE A   1      93.265  -1.031   0.760  0.00  0.00    -0.020 A 
ATOM      3  CD2 PHE A   1      92.914  -1.700   1.927  0.00  0.00    -0.004 A 
ATOM      4  CE2 PHE A   1      91.588  -1.908   2.252  0.00  0.00    -0.000 A 
ATOM      5  CZ  PHE A   1      90.595  -1.454   1.416  0.00  0.00    -0.000 A 
ATOM      6  CE1 PHE A   1      90.925  -0.790   0.250  0.00  0.00    -0.000 A 
ATOM      7  CD1 PHE A   1      92.257  -0.578  -0.074  0.00  0.00    -0.004 A 
ENDBRANCH   1   2
BRANCH   1   8
ATOM      8  CA  PHE A   1      95.123  -1.235  -0.949  0.00  0.00    +0.137 C 
BRANCH   8   9
ATOM      9  N   PHE A   1      95.250  -2.694  -1.005  0.00  0.00    -0.239 NA
ATOM     10  H   PHE A   1      95.116  -3.254  -0.139  0.00  0.00    +0.142 HD
ENDBRANCH   8   9
BRANCH   8  11
ATOM     11  C   PHE A   1      96.460  -0.568  -1.301  0.00  0.00    +0.224 C 
ATOM     12  O   PHE A   1      96.491   0.419  -2.036  0.00  0.00    -0.287 OA
ENDBRANCH   8  11
ENDBRANCH   1   8
TORSDOF 4
REMARK  Name = ../refined-set-2016/1rql/1rql_pocket.pdb
REMARK  172 active torsions:
REMARK  status: ('A' for Active; 'I' for Inactive)
REMARK    1  A    between atoms: _1  and  _3
REMARK    2  A    between atoms: _3  and  _4
REMARK    3  A    between atoms: _3  and  _6
REMARK    4  A    between atoms: _6  and  _7
REMARK    5  A    between atoms: _13  and  _15
REMARK    6  A    between atoms: _15  and  _16
REMARK    7  A    between atoms: _15  and  _18
REMARK    8  A    between atoms: _18  and  _19
REMARK    9  A    between atoms: _22  and  _24
REMARK   10  A    between atoms: _24  and  _25
REMARK   11  A    between atoms: _24  and  _27
REMARK   12  A    between atoms: _27  and  _28
REMARK   13  A    between atoms: _38  and  _40
REMARK   14  A    between atoms: _40  and  _41
REMARK   15  A    between atoms: _41  and  _42
REMARK   16  A    between atoms: _41  and  _44
REMARK   17  A    between atoms: _42  and  MG_407
REMARK   18  A    between atoms: _44  and  _46
REMARK   19  A    between atoms: _46  and  _47
REMARK   20  A    between atoms: _49  and  _51
REMARK   21  A    between atoms: _51  and  _52
REMARK   22  A    between atoms: _51  and  _54
REMARK   23  A    between atoms: _54  and  _55
REMARK   24  A    between atoms: _58  and  _60
REMARK   25  A    between atoms: _60  and  _61
REMARK   26  A    between atoms: _60  and  _63
REMARK   27  A    between atoms: _63  and  _64
REMARK   28  A    between atoms: _67  and  _69
REMARK   29  A    between atoms: _69  and  _70
REMARK   30  A    between atoms: _69  and  _72
REMARK   31  A    between atoms: _75  and  _77
REMARK   32  A    between atoms: _77  and  _78
REMARK   33  A    between atoms: _77  and  _80
REMARK   34  A    between atoms: _80  and  _81
REMARK   35  A    between atoms: _84  and  _86
REMARK   36  A    between atoms: _86  and  _87
REMARK   37  A    between atoms: _86  and  _89
REMARK   38  A    between atoms: _91  and  _93
REMARK   39  A    between atoms: _93  and  _94
REMARK   40  A    between atoms: _93  and  _96
REMARK   41  A    between atoms: _96  and  _97
REMARK   42  A    between atoms: _103  and  _105
REMARK   43  A    between atoms: _105  and  _106
REMARK   44  A    between atoms: _110  and  _111
REMARK   45  A    between atoms: _116  and  _118
REMARK   46  A    between atoms: _118  and  _119
REMARK   47  A    between atoms: _118  and  _121
REMARK   48  A    between atoms: _121  and  _122
REMARK   49  A    between atoms: _125  and  _127
REMARK   50  A    between atoms: _127  and  _128
REMARK   51  A    between atoms: _127  and  _130
REMARK   52  A    between atoms: _130  and  _131
REMARK   53  A    between atoms: _137  and  _139
REMARK   54  A    between atoms: _139  and  _140
REMARK   55  A    between atoms: _139  and  _142
REMARK   56  A    between atoms: _142  and  _143
REMARK   57  A    between atoms: _143  and  _144
REMARK   58  A    between atoms: _144  and  _145
REMARK   59  A    between atoms: _155  and  _156
REMARK   60  A    between atoms: _161  and  _163
REMARK   61  A    between atoms: _163  and  _164
REMARK   62  A    between atoms: _163  and  _166
REMARK   63  A    between atoms: _166  and  _167
REMARK   64  A    between atoms: _167  and  _168
REMARK   65  A    between atoms: _170  and  _172
REMARK   66  A    between atoms: _172  and  _173
REMARK   67  A    between atoms: _175  and  _177
REMARK   68  A    between atoms: _177  and  _178
REMARK   69  A    between atoms: _177  and  _180
REMARK   70  A    between atoms: _180  and  _181
REMARK   71  A    between atoms: _184  and  _186
REMARK   72  A    between atoms: _186  and  _187
REMARK   73  A    between atoms: _186  and  _189
REMARK   74  A    between atoms: _189  and  _190
REMARK   75  A    between atoms: _193  and  _195
REMARK   76  A    between atoms: _195  and  _196
REMARK   77  A    between atoms: _195  and  _198
REMARK   78  A    between atoms: _198  and  _199
REMARK   79  A    between atoms: _199  and  _200
REMARK   80  A    between atoms: _200  and  _201
REMARK   81  A    between atoms: _201  and  _202
REMARK   82  A    between atoms: _206  and  _208
REMARK   83  A    between atoms: _208  and  _209
REMARK   84  A    between atoms: _208  and  _211
REMARK   85  A    between atoms: _211  and  _212
REMARK   86  A    between atoms: _217  and  _219
REMARK   87  A    between atoms: _219  and  _220
REMARK   88  A    between atoms: _219  and  _222
REMARK   89  A    between atoms: _222  and  _223
REMARK   90  A    between atoms: _229  and  _231
REMARK   91  A    between atoms: _231  and  _232
REMARK   92  A    between atoms: _231  and  _234
REMARK   93  A    between atoms: _234  and  _235
REMARK   94  A    between atoms: _238  and  _240
REMARK   95  A    between atoms: _240  and  _241
REMARK   96  A    between atoms: _240  and  _243
REMARK   97  A    between atoms: _243  and  _244
REMARK   98  A    between atoms: _247  and  _249
REMARK   99  A    between atoms: _249  and  _250
REMARK  100  A    between atoms: _249  and  _252
REMARK  101  A    between atoms: _252  and  _253
REMARK  102  A    between atoms: _256  and  _258
REMARK  103  A    between atoms: _258  and  _259
REMARK  104  A    between atoms: _261  and  _263
REMARK  105  A    between atoms: _263  and  _264
REMARK  106  A    between atoms: _263  and  _266
REMARK  107  A    between atoms: _266  and  _267
REMARK  108  A    between atoms: _272  and  _273
REMARK  109  A    between atoms: _275  and  _277
REMARK  110  A    between atoms: _277  and  _278
REMARK  111  A    between atoms: _277  and  _280
REMARK  112  A    between atoms: _280  and  _281
REMARK  113  A    between atoms: _284  and  _286
REMARK  114  A    between atoms: _286  and  _287
REMARK  115  A    between atoms: _286  and  _289
REMARK  116  A    between atoms: _289  and  _290
REMARK  117  A    between atoms: _290  and  _291
REMARK  118  A    between atoms: _293  and  _295
REMARK  119  A    between atoms: _295  and  _296
REMARK  120  A    between atoms: _295  and  _298
REMARK  121  A    between atoms: _298  and  _299
REMARK  122  A    between atoms: _299  and  _300
REMARK  123  A    between atoms: _302  and  _304
REMARK  124  A    between atoms: _304  and  _305
REMARK  125  A    between atoms: _304  and  _307
REMARK  126  A    between atoms: _310  and  _312
REMARK  127  A    between atoms: _312  and  _313
REMARK  128  A    between atoms: _312  and  _315
REMARK  129  A    between atoms: _315  and  _316
REMARK  130  A    between atoms: _316  and  _317
REMARK  131  A    between atoms: _317  and  _318
REMARK  132  A    between atoms: _327  and  _329
REMARK  133  A    between atoms: _329  and  _330
REMARK  134  A    between atoms: _329  and  _332
REMARK  135  A    between atoms: _332  and  _333
REMARK  136  A    between atoms: _333  and  _334
REMARK  137  A    between atoms: _336  and  _338
REMARK  138  A    between atoms: _338  and  _339
REMARK  139  A    between atoms: _338  and  _341
REMARK  140  A    between atoms: _341  and  _342
REMARK  141  A    between atoms: _342  and  _343
REMARK  142  A    between atoms: _343  and  _344
REMARK  143  A    between atoms: _344  and  _345
REMARK  144  A    between atoms: _349  and  _351
REMARK  145  A    between atoms: _351  and  _352
REMARK  146  A    between atoms: _354  and  _356
REMARK  147  A    between atoms: _356  and  _357
REMARK  148  A    between atoms: _356  and  _359
REMARK  149  A    between atoms: _359  and  _360
REMARK  150  A    between atoms: _360  and  _361
REMARK  151  A    between atoms: _361  and  MG_407
REMARK  152  A    between atoms: _363  and  _365
REMARK  153  A    between atoms: _365  and  _366
REMARK  154  A    between atoms: _365  and  _368
REMARK  155  A    between atoms: _368  and  _369
REMARK  156  A    between atoms: _372  and  _374
REMARK  157  A    between atoms: _374  and  _375
REMARK  158  A    between atoms: _374  and  _377
REMARK  159  A    between atoms: _377  and  _378
REMARK  160  A    between atoms: _380  and  _382
REMARK  161  A    between atoms: _382  and  _383
REMARK  162  A    between atoms: _382  and  _385
REMARK  163  A    between atoms: _385  and  _386
REMARK  164  A    between atoms: _389  and  _391
REMARK  165  A    between atoms: _391  and  _392
REMARK  166  A    between atoms: _391  and  _394
REMARK  167  A    between atoms: _394  and  _395
REMARK  168  A    between atoms: _395  and  _396
REMARK  169  A    between atoms: _399  and  _401
REMARK  170  A    between atoms: _401  and  _402
REMARK  171  A    between atoms: _401  and  _404
REMARK  172  A    between atoms: _404  and  _405
REMARK                            x       y       z     vdW  Elec       q    Type
REMARK                         _______ _______ _______ _____ _____    ______ ____
ROOT
ATOM      1  NE  ARG A   1      97.248  -3.333   9.486  0.00  0.00    -0.265 N 
ATOM      2  HE  ARG A   1      98.286  -3.388   9.440  0.00  0.00    +0.259 HD
ATOM      3  CZ  ARG A   1      96.561  -4.459   9.289  0.00  0.00    +0.342 C 
ATOM      4  NH2 ARG A   1      95.230  -4.461   9.325  0.00  0.00    -0.292 N 
ATOM      5 HH21 ARG A   1      94.713  -3.577   9.508  0.00  0.00    +0.255 HD
ATOM      6 HH22 ARG A   1      94.707  -5.346   9.170  0.00  0.00    +0.255 HD
ATOM      7  NH1 ARG A   1      97.209  -5.597   9.078  0.00  0.00    -0.292 N 
ATOM      8 HH11 ARG A   1      98.249  -5.609   9.067  0.00  0.00    +0.255 HD
ATOM      9 HH12 ARG A   1      96.677  -6.477   8.924  0.00  0.00    +0.255 HD
ENDROOT
BRANCH   1  10
ATOM     10  CD  ARG A   1      96.650  -2.026   9.762  0.00  0.00    +0.174 C 
BRANCH  10  11
ATOM     11  CG  ARG A   1      95.805  -1.482   8.612  0.00  0.00    +0.045 C 
BRANCH  11  12
ATOM     12  CB  ARG A   1      95.290  -0.063   8.926  0.00  0.00    +0.029 C 
BRANCH  12  13
ATOM     13  CA  ARG A   1      94.431   0.571   7.826  0.00  0.00    +0.133 C 
BRANCH  13  14
ATOM     14  N   ARG A   1      95.287   1.069   6.776  0.00  0.00    -0.239 NA
ATOM     15  H   ARG A   1      96.281   1.289   6.989  0.00  0.00    +0.142 HD
ENDBRANCH  13  14
BRANCH  13  16
ATOM     16  C   ARG A   1      93.475   1.564   8.470  0.00  0.00    +0.224 C 
ATOM     17  O   ARG A   1      92.456   1.151   9.055  0.00  0.00    -0.287 OA
ENDBRANCH  13  16
ENDBRANCH  12  13
ENDBRANCH  11  12
ENDBRANCH  10  11
ENDBRANCH   1  10
TORSDOF 6
REMARK  Name = ../refined-set-2016/1rql/1rql_pocket.pdb
REMARK  172 active torsions:
REMARK  status: ('A' for Active; 'I' for Inactive)
REMARK    1  A    between atoms: _1  and  _3
REMARK    2  A    between atoms: _3  and  _4
REMARK    3  A    between atoms: _3  and  _6
REMARK    4  A    between atoms: _6  and  _7
REMARK    5  A    between atoms: _13  and  _15
REMARK    6  A    between atoms: _15  and  _16
REMARK    7  A    between atoms: _15  and  _18
REMARK    8  A    between atoms: _18  and  _19
REMARK    9  A    between atoms: _22  and  _24
REMARK   10  A    between atoms: _24  and  _25
REMARK   11  A    between atoms: _24  and  _27
REMARK   12  A    between atoms: _27  and  _28
REMARK   13  A    between atoms: _38  and  _40
REMARK   14  A    between atoms: _40  and  _41
REMARK   15  A    between atoms: _41  and  _42
REMARK   16  A    between atoms: _41  and  _44
REMARK   17  A    between atoms: _42  and  MG_407
REMARK   18  A    between atoms: _44  and  _46
REMARK   19  A    between atoms: _46  and  _47
REMARK   20  A    between atoms: _49  and  _51
REMARK   21  A    between atoms: _51  and  _52
REMARK   22  A    between atoms: _51  and  _54
REMARK   23  A    between atoms: _54  and  _55
REMARK   24  A    between atoms: _58  and  _60
REMARK   25  A    between atoms: _60  and  _61
REMARK   26  A    between atoms: _60  and  _63
REMARK   27  A    between atoms: _63  and  _64
REMARK   28  A    between atoms: _67  and  _69
REMARK   29  A    between atoms: _69  and  _70
REMARK   30  A    between atoms: _69  and  _72
REMARK   31  A    between atoms: _75  and  _77
REMARK   32  A    between atoms: _77  and  _78
REMARK   33  A    between atoms: _77  and  _80
REMARK   34  A    between atoms: _80  and  _81
REMARK   35  A    between atoms: _84  and  _86
REMARK   36  A    between atoms: _86  and  _87
REMARK   37  A    between atoms: _86  and  _89
REMARK   38  A    between atoms: _91  and  _93
REMARK   39  A    between atoms: _93  and  _94
REMARK   40  A    between atoms: _93  and  _96
REMARK   41  A    between atoms: _96  and  _97
REMARK   42  A    between atoms: _103  and  _105
REMARK   43  A    between atoms: _105  and  _106
REMARK   44  A    between atoms: _110  and  _111
REMARK   45  A    between atoms: _116  and  _118
REMARK   46  A    between atoms: _118  and  _119
REMARK   47  A    between atoms: _118  and  _121
REMARK   48  A    between atoms: _121  and  _122
REMARK   49  A    between atoms: _125  and  _127
REMARK   50  A    between atoms: _127  and  _128
REMARK   51  A    between atoms: _127  and  _130
REMARK   52  A    between atoms: _130  and  _131
REMARK   53  A    between atoms: _137  and  _139
REMARK   54  A    between atoms: _139  and  _140
REMARK   55  A    between atoms: _139  and  _142
REMARK   56  A    between atoms: _142  and  _143
REMARK   57  A    between atoms: _143  and  _144
REMARK   58  A    between atoms: _144  and  _145
REMARK   59  A    between atoms: _155  and  _156
REMARK   60  A    between atoms: _161  and  _163
REMARK   61  A    between atoms: _163  and  _164
REMARK   62  A    between atoms: _163  and  _166
REMARK   63  A    between atoms: _166  and  _167
REMARK   64  A    between atoms: _167  and  _168
REMARK   65  A    between atoms: _170  and  _172
REMARK   66  A    between atoms: _172  and  _173
REMARK   67  A    between atoms: _175  and  _177
REMARK   68  A    between atoms: _177  and  _178
REMARK   69  A    between atoms: _177  and  _180
REMARK   70  A    between atoms: _180  and  _181
REMARK   71  A    between atoms: _184  and  _186
REMARK   72  A    between atoms: _186  and  _187
REMARK   73  A    between atoms: _186  and  _189
REMARK   74  A    between atoms: _189  and  _190
REMARK   75  A    between atoms: _193  and  _195
REMARK   76  A    between atoms: _195  and  _196
REMARK   77  A    between atoms: _195  and  _198
REMARK   78  A    between atoms: _198  and  _199
REMARK   79  A    between atoms: _199  and  _200
REMARK   80  A    between atoms: _200  and  _201
REMARK   81  A    between atoms: _201  and  _202
REMARK   82  A    between atoms: _206  and  _208
REMARK   83  A    between atoms: _208  and  _209
REMARK   84  A    between atoms: _208  and  _211
REMARK   85  A    between atoms: _211  and  _212
REMARK   86  A    between atoms: _217  and  _219
REMARK   87  A    between atoms: _219  and  _220
REMARK   88  A    between atoms: _219  and  _222
REMARK   89  A    between atoms: _222  and  _223
REMARK   90  A    between atoms: _229  and  _231
REMARK   91  A    between atoms: _231  and  _232
REMARK   92  A    between atoms: _231  and  _234
REMARK   93  A    between atoms: _234  and  _235
REMARK   94  A    between atoms: _238  and  _240
REMARK   95  A    between atoms: _240  and  _241
REMARK   96  A    between atoms: _240  and  _243
REMARK   97  A    between atoms: _243  and  _244
REMARK   98  A    between atoms: _247  and  _249
REMARK   99  A    between atoms: _249  and  _250
REMARK  100  A    between atoms: _249  and  _252
REMARK  101  A    between atoms: _252  and  _253
REMARK  102  A    between atoms: _256  and  _258
REMARK  103  A    between atoms: _258  and  _259
REMARK  104  A    between atoms: _261  and  _263
REMARK  105  A    between atoms: _263  and  _264
REMARK  106  A    between atoms: _263  and  _266
REMARK  107  A    between atoms: _266  and  _267
REMARK  108  A    between atoms: _272  and  _273
REMARK  109  A    between atoms: _275  and  _277
REMARK  110  A    between atoms: _277  and  _278
REMARK  111  A    between atoms: _277  and  _280
REMARK  112  A    between atoms: _280  and  _281
REMARK  113  A    between atoms: _284  and  _286
REMARK  114  A    between atoms: _286  and  _287
REMARK  115  A    between atoms: _286  and  _289
REMARK  116  A    between atoms: _289  and  _290
REMARK  117  A    between atoms: _290  and  _291
REMARK  118  A    between atoms: _293  and  _295
REMARK  119  A    between atoms: _295  and  _296
REMARK  120  A    between atoms: _295  and  _298
REMARK  121  A    between atoms: _298  and  _299
REMARK  122  A    between atoms: _299  and  _300
REMARK  123  A    between atoms: _302  and  _304
REMARK  124  A    between atoms: _304  and  _305
REMARK  125  A    between atoms: _304  and  _307
REMARK  126  A    between atoms: _310  and  _312
REMARK  127  A    between atoms: _312  and  _313
REMARK  128  A    between atoms: _312  and  _315
REMARK  129  A    between atoms: _315  and  _316
REMARK  130  A    between atoms: _316  and  _317
REMARK  131  A    between atoms: _317  and  _318
REMARK  132  A    between atoms: _327  and  _329
REMARK  133  A    between atoms: _329  and  _330
REMARK  134  A    between atoms: _329  and  _332
REMARK  135  A    between atoms: _332  and  _333
REMARK  136  A    between atoms: _333  and  _334
REMARK  137  A    between atoms: _336  and  _338
REMARK  138  A    between atoms: _338  and  _339
REMARK  139  A    between atoms: _338  and  _341
REMARK  140  A    between atoms: _341  and  _342
REMARK  141  A    between atoms: _342  and  _343
REMARK  142  A    between atoms: _343  and  _344
REMARK  143  A    between atoms: _344  and  _345
REMARK  144  A    between atoms: _349  and  _351
REMARK  145  A    between atoms: _351  and  _352
REMARK  146  A    between atoms: _354  and  _356
REMARK  147  A    between atoms: _356  and  _357
REMARK  148  A    between atoms: _356  and  _359
REMARK  149  A    between atoms: _359  and  _360
REMARK  150  A    between atoms: _360  and  _361
REMARK  151  A    between atoms: _361  and  MG_407
REMARK  152  A    between atoms: _363  and  _365
REMARK  153  A    between atoms: _365  and  _366
REMARK  154  A    between atoms: _365  and  _368
REMARK  155  A    between atoms: _368  and  _369
REMARK  156  A    between atoms: _372  and  _374
REMARK  157  A    between atoms: _374  and  _375
REMARK  158  A    between atoms: _374  and  _377
REMARK  159  A    between atoms: _377  and  _378
REMARK  160  A    between atoms: _380  and  _382
REMARK  161  A    between atoms: _382  and  _383
REMARK  162  A    between atoms: _382  and  _385
REMARK  163  A    between atoms: _385  and  _386
REMARK  164  A    between atoms: _389  and  _391
REMARK  165  A    between atoms: _391  and  _392
REMARK  166  A    between atoms: _391  and  _394
REMARK  167  A    between atoms: _394  and  _395
REMARK  168  A    between atoms: _395  and  _396
REMARK  169  A    between atoms: _399  and  _401
REMARK  170  A    between atoms: _401  and  _402
REMARK  171  A    between atoms: _401  and  _404
REMARK  172  A    between atoms: _404  and  _405
REMARK                            x       y       z     vdW  Elec       q    Type
REMARK                         _______ _______ _______ _____ _____    ______ ____
ROOT
ATOM      1  CA  LEU A   4      84.164   0.758   6.107  0.00  0.00    +0.149 C 
ENDROOT
BRANCH   1   2
ATOM      2  C   LEU A   4      83.931  -0.103   4.877  0.00  0.00    +0.241 C 
ATOM      3  O   LEU A   4      84.741  -0.979   4.581  0.00  0.00    -0.273 OA
ATOM      4  N   LEU A   5      82.834   0.151   4.166  0.00  0.00    -0.297 N 
ATOM      5  H   LEU A   5      82.173   0.882   4.498  0.00  0.00    +0.150 HD
BRANCH   4   6
ATOM      6  CA  LEU A   5      82.536  -0.569   2.936  0.00  0.00    +0.149 C 
BRANCH   6   7
ATOM      7  C   LEU A   5      83.733  -0.321   2.025  0.00  0.00    +0.241 C 
ATOM      8  O   LEU A   5      84.189   0.814   1.884  0.00  0.00    -0.273 OA
ATOM      9  N   LYS A   6      84.232  -1.383   1.406  0.00  0.00    -0.298 N 
ATOM     10  H   LYS A   6      83.777  -2.307   1.548  0.00  0.00    +0.150 HD
BRANCH   9  11
ATOM     11  CA  LYS A   6      85.395  -1.297   0.535  0.00  0.00    +0.137 C 
BRANCH  11  12
ATOM     12  C   LYS A   6      85.531  -0.109  -0.422  0.00  0.00    +0.227 C 
ATOM     13  O   LYS A   6      86.605   0.482  -0.517  0.00  0.00    -0.286 OA
ENDBRANCH  11  12
BRANCH  11  14
ATOM     14  CB  LYS A   6      85.547  -2.601  -0.241  0.00  0.00    +0.028 C 
BRANCH  14  15
ATOM     15  CG  LYS A   6      86.546  -3.565   0.397  0.00  0.00    -0.000 C 
BRANCH  15  16
ATOM     16  CD  LYS A   6      86.145  -3.968   1.793  0.00  0.00    -0.024 C 
BRANCH  16  17
ATOM     17  CE  LYS A   6      87.150  -4.924   2.383  0.00  0.00    -0.086 C 
BRANCH  17  18
ATOM     18  NZ  LYS A   6      88.443  -4.280   2.715  0.00  0.00    +0.380 N 
ATOM     19  HZ1 LYS A   6      88.283  -3.523   3.410  0.00  0.00    -0.089 HD
ATOM     20  HZ2 LYS A   6      89.089  -4.989   3.116  0.00  0.00    -0.089 HD
ATOM     21  HZ3 LYS A   6      88.860  -3.878   1.852  0.00  0.00    -0.089 HD
ENDBRANCH  17  18
ENDBRANCH  16  17
ENDBRANCH  15  16
ENDBRANCH  14  15
ENDBRANCH  11  14
ENDBRANCH   9  11
ENDBRANCH   6   7
BRANCH   6  22
ATOM     22  CB  LEU A   5      81.267  -0.030   2.274  0.00  0.00    +0.029 C 
BRANCH  22  23
ATOM     23  CG  LEU A   5      80.994  -0.513   0.834  0.00  0.00    +0.002 C 
ATOM     24  CD2 LEU A   5      80.765  -2.020   0.832  0.00  0.00    +0.000 C 
ATOM     25  CD1 LEU A   5      79.772   0.212   0.240  0.00  0.00    +0.000 C 
ENDBRANCH  22  23
ENDBRANCH   6  22
ENDBRANCH   4   6
ENDBRANCH   1   2
BRANCH   1  28
ATOM     26  C   GLY A   3      84.801  -1.002   7.683  0.00  0.00    +0.243 C 
ATOM     27  O   GLY A   3      83.658  -1.454   7.727  0.00  0.00    -0.273 OA
ATOM     28  N   LEU A   4      85.135   0.062   6.952  0.00  0.00    -0.297 N 
ATOM     29  H   LEU A   4      86.115   0.408   6.983  0.00  0.00    +0.150 HD
BRANCH  26  30
ATOM     30  CA  GLY A   3      85.914  -1.648   8.489  0.00  0.00    +0.176 C 
BRANCH  30  33
ATOM     31  C   MET A   2      88.060  -0.539   8.449  0.00  0.00    +0.241 C 
ATOM     32  O   MET A   2      87.760   0.120   9.443  0.00  0.00    -0.273 OA
ATOM     33  N   GLY A   3      87.230  -1.428   7.908  0.00  0.00    -0.295 N 
ATOM     34  H   GLY A   3      87.523  -1.967   7.068  0.00  0.00    +0.150 HD
BRANCH  31  35
ATOM     35  CA  MET A   2      89.437  -0.375   7.781  0.00  0.00    +0.149 C 
BRANCH  35  37
ATOM     36  C   PRO A   1      89.057   1.982   7.382  0.00  0.00    +0.239 C 
ATOM     37  N   MET A   2      89.902   1.022   7.752  0.00  0.00    -0.297 N 
ATOM     38  H   MET A   2      90.880   1.256   8.018  0.00  0.00    +0.150 HD
ATOM     39  O   PRO A   1      87.888   1.723   7.091  0.00  0.00    -0.274 OA
BRANCH  36  41
ATOM     40  N   PRO A   1      90.997   3.612   7.585  0.00  0.00    -0.210 NA
ATOM     41  CA  PRO A   1      89.566   3.451   7.367  0.00  0.00    +0.149 C 
ATOM     42  CB  PRO A   1      89.352   4.148   6.033  0.00  0.00    +0.028 C 
ATOM     43  CG  PRO A   1      90.576   3.836   5.288  0.00  0.00    +0.021 C 
ATOM     44  CD  PRO A   1      91.697   3.877   6.314  0.00  0.00    +0.089 C 
ENDBRANCH  36  41
ENDBRANCH  35  37
BRANCH  35  45
ATOM     45  CB  MET A   2      90.439  -1.264   8.518  0.00  0.00    +0.041 C 
BRANCH  45  46
ATOM     46  CG  MET A   2      90.277  -2.756   8.240  0.00  0.00    +0.060 C 
BRANCH  46  47
ATOM     47  SD  MET A   2      90.743  -3.179   6.545  0.00  0.00    -0.139 S 
ATOM     48  CE  MET A   2      92.487  -3.010   6.627  0.00  0.00    +0.069 C 
ENDBRANCH  46  47
ENDBRANCH  45  46
ENDBRANCH  35  45
ENDBRANCH  31  35
ENDBRANCH  30  33
ENDBRANCH  26  30
ENDBRANCH   1  28
BRANCH   1  49
ATOM     49  CB  LEU A   4      84.704   2.113   5.626  0.00  0.00    +0.029 C 
BRANCH  49  50
ATOM     50  CG  LEU A   4      85.100   3.241   6.578  0.00  0.00    +0.002 C 
ATOM     51  CD2 LEU A   4      83.999   3.559   7.580  0.00  0.00    +0.000 C 
ATOM     52  CD1 LEU A   4      85.413   4.476   5.720  0.00  0.00    +0.000 C 
ENDBRANCH  49  50
ENDBRANCH   1  49
TORSDOF 23
REMARK  Name = ../refined-set-2016/1rql/1rql_pocket.pdb
REMARK  172 active torsions:
REMARK  status: ('A' for Active; 'I' for Inactive)
REMARK    1  A    between atoms: _1  and  _3
REMARK    2  A    between atoms: _3  and  _4
REMARK    3  A    between atoms: _3  and  _6
REMARK    4  A    between atoms: _6  and  _7
REMARK    5  A    between atoms: _13  and  _15
REMARK    6  A    between atoms: _15  and  _16
REMARK    7  A    between atoms: _15  and  _18
REMARK    8  A    between atoms: _18  and  _19
REMARK    9  A    between atoms: _22  and  _24
REMARK   10  A    between atoms: _24  and  _25
REMARK   11  A    between atoms: _24  and  _27
REMARK   12  A    between atoms: _27  and  _28
REMARK   13  A    between atoms: _38  and  _40
REMARK   14  A    between atoms: _40  and  _41
REMARK   15  A    between atoms: _41  and  _42
REMARK   16  A    between atoms: _41  and  _44
REMARK   17  A    between atoms: _42  and  MG_407
REMARK   18  A    between atoms: _44  and  _46
REMARK   19  A    between atoms: _46  and  _47
REMARK   20  A    between atoms: _49  and  _51
REMARK   21  A    between atoms: _51  and  _52
REMARK   22  A    between atoms: _51  and  _54
REMARK   23  A    between atoms: _54  and  _55
REMARK   24  A    between atoms: _58  and  _60
REMARK   25  A    between atoms: _60  and  _61
REMARK   26  A    between atoms: _60  and  _63
REMARK   27  A    between atoms: _63  and  _64
REMARK   28  A    between atoms: _67  and  _69
REMARK   29  A    between atoms: _69  and  _70
REMARK   30  A    between atoms: _69  and  _72
REMARK   31  A    between atoms: _75  and  _77
REMARK   32  A    between atoms: _77  and  _78
REMARK   33  A    between atoms: _77  and  _80
REMARK   34  A    between atoms: _80  and  _81
REMARK   35  A    between atoms: _84  and  _86
REMARK   36  A    between atoms: _86  and  _87
REMARK   37  A    between atoms: _86  and  _89
REMARK   38  A    between atoms: _91  and  _93
REMARK   39  A    between atoms: _93  and  _94
REMARK   40  A    between atoms: _93  and  _96
REMARK   41  A    between atoms: _96  and  _97
REMARK   42  A    between atoms: _103  and  _105
REMARK   43  A    between atoms: _105  and  _106
REMARK   44  A    between atoms: _110  and  _111
REMARK   45  A    between atoms: _116  and  _118
REMARK   46  A    between atoms: _118  and  _119
REMARK   47  A    between atoms: _118  and  _121
REMARK   48  A    between atoms: _121  and  _122
REMARK   49  A    between atoms: _125  and  _127
REMARK   50  A    between atoms: _127  and  _128
REMARK   51  A    between atoms: _127  and  _130
REMARK   52  A    between atoms: _130  and  _131
REMARK   53  A    between atoms: _137  and  _139
REMARK   54  A    between atoms: _139  and  _140
REMARK   55  A    between atoms: _139  and  _142
REMARK   56  A    between atoms: _142  and  _143
REMARK   57  A    between atoms: _143  and  _144
REMARK   58  A    between atoms: _144  and  _145
REMARK   59  A    between atoms: _155  and  _156
REMARK   60  A    between atoms: _161  and  _163
REMARK   61  A    between atoms: _163  and  _164
REMARK   62  A    between atoms: _163  and  _166
REMARK   63  A    between atoms: _166  and  _167
REMARK   64  A    between atoms: _167  and  _168
REMARK   65  A    between atoms: _170  and  _172
REMARK   66  A    between atoms: _172  and  _173
REMARK   67  A    between atoms: _175  and  _177
REMARK   68  A    between atoms: _177  and  _178
REMARK   69  A    between atoms: _177  and  _180
REMARK   70  A    between atoms: _180  and  _181
REMARK   71  A    between atoms: _184  and  _186
REMARK   72  A    between atoms: _186  and  _187
REMARK   73  A    between atoms: _186  and  _189
REMARK   74  A    between atoms: _189  and  _190
REMARK   75  A    between atoms: _193  and  _195
REMARK   76  A    between atoms: _195  and  _196
REMARK   77  A    between atoms: _195  and  _198
REMARK   78  A    between atoms: _198  and  _199
REMARK   79  A    between atoms: _199  and  _200
REMARK   80  A    between atoms: _200  and  _201
REMARK   81  A    between atoms: _201  and  _202
REMARK   82  A    between atoms: _206  and  _208
REMARK   83  A    between atoms: _208  and  _209
REMARK   84  A    between atoms: _208  and  _211
REMARK   85  A    between atoms: _211  and  _212
REMARK   86  A    between atoms: _217  and  _219
REMARK   87  A    between atoms: _219  and  _220
REMARK   88  A    between atoms: _219  and  _222
REMARK   89  A    between atoms: _222  and  _223
REMARK   90  A    between atoms: _229  and  _231
REMARK   91  A    between atoms: _231  and  _232
REMARK   92  A    between atoms: _231  and  _234
REMARK   93  A    between atoms: _234  and  _235
REMARK   94  A    between atoms: _238  and  _240
REMARK   95  A    between atoms: _240  and  _241
REMARK   96  A    between atoms: _240  and  _243
REMARK   97  A    between atoms: _243  and  _244
REMARK   98  A    between atoms: _247  and  _249
REMARK   99  A    between atoms: _249  and  _250
REMARK  100  A    between atoms: _249  and  _252
REMARK  101  A    between atoms: _252  and  _253
REMARK  102  A    between atoms: _256  and  _258
REMARK  103  A    between atoms: _258  and  _259
REMARK  104  A    between atoms: _261  and  _263
REMARK  105  A    between atoms: _263  and  _264
REMARK  106  A    between atoms: _263  and  _266
REMARK  107  A    between atoms: _266  and  _267
REMARK  108  A    between atoms: _272  and  _273
REMARK  109  A    between atoms: _275  and  _277
REMARK  110  A    between atoms: _277  and  _278
REMARK  111  A    between atoms: _277  and  _280
REMARK  112  A    between atoms: _280  and  _281
REMARK  113  A    between atoms: _284  and  _286
REMARK  114  A    between atoms: _286  and  _287
REMARK  115  A    between atoms: _286  and  _289
REMARK  116  A    between atoms: _289  and  _290
REMARK  117  A    between atoms: _290  and  _291
REMARK  118  A    between atoms: _293  and  _295
REMARK  119  A    between atoms: _295  and  _296
REMARK  120  A    between atoms: _295  and  _298
REMARK  121  A    between atoms: _298  and  _299
REMARK  122  A    between atoms: _299  and  _300
REMARK  123  A    between atoms: _302  and  _304
REMARK  124  A    between atoms: _304  and  _305
REMARK  125  A    between atoms: _304  and  _307
REMARK  126  A    between atoms: _310  and  _312
REMARK  127  A    between atoms: _312  and  _313
REMARK  128  A    between atoms: _312  and  _315
REMARK  129  A    between atoms: _315  and  _316
REMARK  130  A    between atoms: _316  and  _317
REMARK  131  A    between atoms: _317  and  _318
REMARK  132  A    between atoms: _327  and  _329
REMARK  133  A    between atoms: _329  and  _330
REMARK  134  A    between atoms: _329  and  _332
REMARK  135  A    between atoms: _332  and  _333
REMARK  136  A    between atoms: _333  and  _334
REMARK  137  A    between atoms: _336  and  _338
REMARK  138  A    between atoms: _338  and  _339
REMARK  139  A    between atoms: _338  and  _341
REMARK  140  A    between atoms: _341  and  _342
REMARK  141  A    between atoms: _342  and  _343
REMARK  142  A    between atoms: _343  and  _344
REMARK  143  A    between atoms: _344  and  _345
REMARK  144  A    between atoms: _349  and  _351
REMARK  145  A    between atoms: _351  and  _352
REMARK  146  A    between atoms: _354  and  _356
REMARK  147  A    between atoms: _356  and  _357
REMARK  148  A    between atoms: _356  and  _359
REMARK  149  A    between atoms: _359  and  _360
REMARK  150  A    between atoms: _360  and  _361
REMARK  151  A    between atoms: _361  and  MG_407
REMARK  152  A    between atoms: _363  and  _365
REMARK  153  A    between atoms: _365  and  _366
REMARK  154  A    between atoms: _365  and  _368
REMARK  155  A    between atoms: _368  and  _369
REMARK  156  A    between atoms: _372  and  _374
REMARK  157  A    between atoms: _374  and  _375
REMARK  158  A    between atoms: _374  and  _377
REMARK  159  A    between atoms: _377  and  _378
REMARK  160  A    between atoms: _380  and  _382
REMARK  161  A    between atoms: _382  and  _383
REMARK  162  A    between atoms: _382  and  _385
REMARK  163  A    between atoms: _385  and  _386
REMARK  164  A    between atoms: _389  and  _391
REMARK  165  A    between atoms: _391  and  _392
REMARK  166  A    between atoms: _391  and  _394
REMARK  167  A    between atoms: _394  and  _395
REMARK  168  A    between atoms: _395  and  _396
REMARK  169  A    between atoms: _399  and  _401
REMARK  170  A    between atoms: _401  and  _402
REMARK  171  A    between atoms: _401  and  _404
REMARK  172  A    between atoms: _404  and  _405
REMARK                            x       y       z     vdW  Elec       q    Type
REMARK                         _______ _______ _______ _____ _____    ______ ____
ROOT
ATOM      1  CB  HIS A   1      88.038   1.325   2.363  0.00  0.00    +0.072 C 
ENDROOT
BRANCH   1   2
ATOM      2  CG  HIS A   1      89.332   1.146   3.099  0.00  0.00    +0.082 A 
ATOM      3  ND1 HIS A   1      89.415   0.467   4.295  0.00  0.00    -0.227 NA
ATOM      4  CE1 HIS A   1      90.669   0.477   4.715  0.00  0.00    +0.199 A 
ATOM      5  NE2 HIS A   1      91.399   1.135   3.836  0.00  0.00    -0.221 NA
ATOM      6  CD2 HIS A   1      90.589   1.562   2.814  0.00  0.00    +0.115 A 
ENDBRANCH   1   2
BRANCH   1   7
ATOM      7  CA  HIS A   1      87.678   2.793   2.089  0.00  0.00    +0.139 C 
BRANCH   7   8
ATOM      8  N   HIS A   1      86.318   2.885   1.584  0.00  0.00    -0.239 NA
ATOM      9  H   HIS A   1      85.779   2.007   1.444  0.00  0.00    +0.142 HD
ENDBRANCH   7   8
BRANCH   7  10
ATOM     10  C   HIS A   1      88.656   3.376   1.074  0.00  0.00    +0.224 C 
ATOM     11  O   HIS A   1      89.604   4.076   1.445  0.00  0.00    -0.287 OA
ENDBRANCH   7  10
ENDBRANCH   1   7
TORSDOF 4
REMARK  Name = ../refined-set-2016/1rql/1rql_pocket.pdb
REMARK  172 active torsions:
REMARK  status: ('A' for Active; 'I' for Inactive)
REMARK    1  A    between atoms: _1  and  _3
REMARK    2  A    between atoms: _3  and  _4
REMARK    3  A    between atoms: _3  and  _6
REMARK    4  A    between atoms: _6  and  _7
REMARK    5  A    between atoms: _13  and  _15
REMARK    6  A    between atoms: _15  and  _16
REMARK    7  A    between atoms: _15  and  _18
REMARK    8  A    between atoms: _18  and  _19
REMARK    9  A    between atoms: _22  and  _24
REMARK   10  A    between atoms: _24  and  _25
REMARK   11  A    between atoms: _24  and  _27
REMARK   12  A    between atoms: _27  and  _28
REMARK   13  A    between atoms: _38  and  _40
REMARK   14  A    between atoms: _40  and  _41
REMARK   15  A    between atoms: _41  and  _42
REMARK   16  A    between atoms: _41  and  _44
REMARK   17  A    between atoms: _42  and  MG_407
REMARK   18  A    between atoms: _44  and  _46
REMARK   19  A    between atoms: _46  and  _47
REMARK   20  A    between atoms: _49  and  _51
REMARK   21  A    between atoms: _51  and  _52
REMARK   22  A    between atoms: _51  and  _54
REMARK   23  A    between atoms: _54  and  _55
REMARK   24  A    between atoms: _58  and  _60
REMARK   25  A    between atoms: _60  and  _61
REMARK   26  A    between atoms: _60  and  _63
REMARK   27  A    between atoms: _63  and  _64
REMARK   28  A    between atoms: _67  and  _69
REMARK   29  A    between atoms: _69  and  _70
REMARK   30  A    between atoms: _69  and  _72
REMARK   31  A    between atoms: _75  and  _77
REMARK   32  A    between atoms: _77  and  _78
REMARK   33  A    between atoms: _77  and  _80
REMARK   34  A    between atoms: _80  and  _81
REMARK   35  A    between atoms: _84  and  _86
REMARK   36  A    between atoms: _86  and  _87
REMARK   37  A    between atoms: _86  and  _89
REMARK   38  A    between atoms: _91  and  _93
REMARK   39  A    between atoms: _93  and  _94
REMARK   40  A    between atoms: _93  and  _96
REMARK   41  A    between atoms: _96  and  _97
REMARK   42  A    between atoms: _103  and  _105
REMARK   43  A    between atoms: _105  and  _106
REMARK   44  A    between atoms: _110  and  _111
REMARK   45  A    between atoms: _116  and  _118
REMARK   46  A    between atoms: _118  and  _119
REMARK   47  A    between atoms: _118  and  _121
REMARK   48  A    between atoms: _121  and  _122
REMARK   49  A    between atoms: _125  and  _127
REMARK   50  A    between atoms: _127  and  _128
REMARK   51  A    between atoms: _127  and  _130
REMARK   52  A    between atoms: _130  and  _131
REMARK   53  A    between atoms: _137  and  _139
REMARK   54  A    between atoms: _139  and  _140
REMARK   55  A    between atoms: _139  and  _142
REMARK   56  A    between atoms: _142  and  _143
REMARK   57  A    between atoms: _143  and  _144
REMARK   58  A    between atoms: _144  and  _145
REMARK   59  A    between atoms: _155  and  _156
REMARK   60  A    between atoms: _161  and  _163
REMARK   61  A    between atoms: _163  and  _164
REMARK   62  A    between atoms: _163  and  _166
REMARK   63  A    between atoms: _166  and  _167
REMARK   64  A    between atoms: _167  and  _168
REMARK   65  A    between atoms: _170  and  _172
REMARK   66  A    between atoms: _172  and  _173
REMARK   67  A    between atoms: _175  and  _177
REMARK   68  A    between atoms: _177  and  _178
REMARK   69  A    between atoms: _177  and  _180
REMARK   70  A    between atoms: _180  and  _181
REMARK   71  A    between atoms: _184  and  _186
REMARK   72  A    between atoms: _186  and  _187
REMARK   73  A    between atoms: _186  and  _189
REMARK   74  A    between atoms: _189  and  _190
REMARK   75  A    between atoms: _193  and  _195
REMARK   76  A    between atoms: _195  and  _196
REMARK   77  A    between atoms: _195  and  _198
REMARK   78  A    between atoms: _198  and  _199
REMARK   79  A    between atoms: _199  and  _200
REMARK   80  A    between atoms: _200  and  _201
REMARK   81  A    between atoms: _201  and  _202
REMARK   82  A    between atoms: _206  and  _208
REMARK   83  A    between atoms: _208  and  _209
REMARK   84  A    between atoms: _208  and  _211
REMARK   85  A    between atoms: _211  and  _212
REMARK   86  A    between atoms: _217  and  _219
REMARK   87  A    between atoms: _219  and  _220
REMARK   88  A    between atoms: _219  and  _222
REMARK   89  A    between atoms: _222  and  _223
REMARK   90  A    between atoms: _229  and  _231
REMARK   91  A    between atoms: _231  and  _232
REMARK   92  A    between atoms: _231  and  _234
REMARK   93  A    between atoms: _234  and  _235
REMARK   94  A    between atoms: _238  and  _240
REMARK   95  A    between atoms: _240  and  _241
REMARK   96  A    between atoms: _240  and  _243
REMARK   97  A    between atoms: _243  and  _244
REMARK   98  A    between atoms: _247  and  _249
REMARK   99  A    between atoms: _249  and  _250
REMARK  100  A    between atoms: _249  and  _252
REMARK  101  A    between atoms: _252  and  _253
REMARK  102  A    between atoms: _256  and  _258
REMARK  103  A    between atoms: _258  and  _259
REMARK  104  A    between atoms: _261  and  _263
REMARK  105  A    between atoms: _263  and  _264
REMARK  106  A    between atoms: _263  and  _266
REMARK  107  A    between atoms: _266  and  _267
REMARK  108  A    between atoms: _272  and  _273
REMARK  109  A    between atoms: _275  and  _277
REMARK  110  A    between atoms: _277  and  _278
REMARK  111  A    between atoms: _277  and  _280
REMARK  112  A    between atoms: _280  and  _281
REMARK  113  A    between atoms: _284  and  _286
REMARK  114  A    between atoms: _286  and  _287
REMARK  115  A    between atoms: _286  and  _289
REMARK  116  A    between atoms: _289  and  _290
REMARK  117  A    between atoms: _290  and  _291
REMARK  118  A    between atoms: _293  and  _295
REMARK  119  A    between atoms: _295  and  _296
REMARK  120  A    between atoms: _295  and  _298
REMARK  121  A    between atoms: _298  and  _299
REMARK  122  A    between atoms: _299  and  _300
REMARK  123  A    between atoms: _302  and  _304
REMARK  124  A    between atoms: _304  and  _305
REMARK  125  A    between atoms: _304  and  _307
REMARK  126  A    between atoms: _310  and  _312
REMARK  127  A    between atoms: _312  and  _313
REMARK  128  A    between atoms: _312  and  _315
REMARK  129  A    between atoms: _315  and  _316
REMARK  130  A    between atoms: _316  and  _317
REMARK  131  A    between atoms: _317  and  _318
REMARK  132  A    between atoms: _327  and  _329
REMARK  133  A    between atoms: _329  and  _330
REMARK  134  A    between atoms: _329  and  _332
REMARK  135  A    between atoms: _332  and  _333
REMARK  136  A    between atoms: _333  and  _334
REMARK  137  A    between atoms: _336  and  _338
REMARK  138  A    between atoms: _338  and  _339
REMARK  139  A    between atoms: _338  and  _341
REMARK  140  A    between atoms: _341  and  _342
REMARK  141  A    between atoms: _342  and  _343
REMARK  142  A    between atoms: _343  and  _344
REMARK  143  A    between atoms: _344  and  _345
REMARK  144  A    between atoms: _349  and  _351
REMARK  145  A    between atoms: _351  and  _352
REMARK  146  A    between atoms: _354  and  _356
REMARK  147  A    between atoms: _356  and  _357
REMARK  148  A    between atoms: _356  and  _359
REMARK  149  A    between atoms: _359  and  _360
REMARK  150  A    between atoms: _360  and  _361
REMARK  151  A    between atoms: _361  and  MG_407
REMARK  152  A    between atoms: _363  and  _365
REMARK  153  A    between atoms: _365  and  _366
REMARK  154  A    between atoms: _365  and  _368
REMARK  155  A    between atoms: _368  and  _369
REMARK  156  A    between atoms: _372  and  _374
REMARK  157  A    between atoms: _374  and  _375
REMARK  158  A    between atoms: _374  and  _377
REMARK  159  A    between atoms: _377  and  _378
REMARK  160  A    between atoms: _380  and  _382
REMARK  161  A    between atoms: _382  and  _383
REMARK  162  A    between atoms: _382  and  _385
REMARK  163  A    between atoms: _385  and  _386
REMARK  164  A    between atoms: _389  and  _391
REMARK  165  A    between atoms: _391  and  _392
REMARK  166  A    between atoms: _391  and  _394
REMARK  167  A    between atoms: _394  and  _395
REMARK  168  A    between atoms: _395  and  _396
REMARK  169  A    between atoms: _399  and  _401
REMARK  170  A    between atoms: _401  and  _402
REMARK  171  A    between atoms: _401  and  _404
REMARK  172  A    between atoms: _404  and  _405
REMARK                            x       y       z     vdW  Elec       q    Type
REMARK                         _______ _______ _______ _____ _____    ______ ____
ROOT
ATOM      1  CB  PHE A   1      90.455  -2.967  -4.744  0.00  0.00    +0.051 C 
ENDROOT
BRANCH   1   2
ATOM      2  CG  PHE A   1      90.258  -3.444  -3.332  0.00  0.00    -0.020 A 
ATOM      3  CD2 PHE A   1      91.301  -3.400  -2.417  0.00  0.00    -0.004 A 
ATOM      4  CE2 PHE A   1      91.133  -3.887  -1.123  0.00  0.00    -0.000 A 
ATOM      5  CZ  PHE A   1      89.914  -4.426  -0.731  0.00  0.00    -0.000 A 
ATOM      6  CE1 PHE A   1      88.865  -4.474  -1.635  0.00  0.00    -0.000 A 
ATOM      7  CD1 PHE A   1      89.039  -3.983  -2.929  0.00  0.00    -0.004 A 
ENDBRANCH   1   2
BRANCH   1   8
ATOM      8  CA  PHE A   1      91.073  -4.020  -5.675  0.00  0.00    +0.137 C 
BRANCH   8   9
ATOM      9  N   PHE A   1      91.089  -3.542  -7.056  0.00  0.00    -0.239 NA
ATOM     10  H   PHE A   1      90.832  -2.554  -7.254  0.00  0.00    +0.142 HD
ENDBRANCH   8   9
BRANCH   8  11
ATOM     11  C   PHE A   1      90.274  -5.322  -5.583  0.00  0.00    +0.224 C 
ATOM     12  O   PHE A   1      90.717  -6.282  -4.956  0.00  0.00    -0.287 OA
ENDBRANCH   8  11
ENDBRANCH   1   8
TORSDOF 4
REMARK  Name = ../refined-set-2016/1rql/1rql_pocket.pdb
REMARK  172 active torsions:
REMARK  status: ('A' for Active; 'I' for Inactive)
REMARK    1  A    between atoms: _1  and  _3
REMARK    2  A    between atoms: _3  and  _4
REMARK    3  A    between atoms: _3  and  _6
REMARK    4  A    between atoms: _6  and  _7
REMARK    5  A    between atoms: _13  and  _15
REMARK    6  A    between atoms: _15  and  _16
REMARK    7  A    between atoms: _15  and  _18
REMARK    8  A    between atoms: _18  and  _19
REMARK    9  A    between atoms: _22  and  _24
REMARK   10  A    between atoms: _24  and  _25
REMARK   11  A    between atoms: _24  and  _27
REMARK   12  A    between atoms: _27  and  _28
REMARK   13  A    between atoms: _38  and  _40
REMARK   14  A    between atoms: _40  and  _41
REMARK   15  A    between atoms: _41  and  _42
REMARK   16  A    between atoms: _41  and  _44
REMARK   17  A    between atoms: _42  and  MG_407
REMARK   18  A    between atoms: _44  and  _46
REMARK   19  A    between atoms: _46  and  _47
REMARK   20  A    between atoms: _49  and  _51
REMARK   21  A    between atoms: _51  and  _52
REMARK   22  A    between atoms: _51  and  _54
REMARK   23  A    between atoms: _54  and  _55
REMARK   24  A    between atoms: _58  and  _60
REMARK   25  A    between atoms: _60  and  _61
REMARK   26  A    between atoms: _60  and  _63
REMARK   27  A    between atoms: _63  and  _64
REMARK   28  A    between atoms: _67  and  _69
REMARK   29  A    between atoms: _69  and  _70
REMARK   30  A    between atoms: _69  and  _72
REMARK   31  A    between atoms: _75  and  _77
REMARK   32  A    between atoms: _77  and  _78
REMARK   33  A    between atoms: _77  and  _80
REMARK   34  A    between atoms: _80  and  _81
REMARK   35  A    between atoms: _84  and  _86
REMARK   36  A    between atoms: _86  and  _87
REMARK   37  A    between atoms: _86  and  _89
REMARK   38  A    between atoms: _91  and  _93
REMARK   39  A    between atoms: _93  and  _94
REMARK   40  A    between atoms: _93  and  _96
REMARK   41  A    between atoms: _96  and  _97
REMARK   42  A    between atoms: _103  and  _105
REMARK   43  A    between atoms: _105  and  _106
REMARK   44  A    between atoms: _110  and  _111
REMARK   45  A    between atoms: _116  and  _118
REMARK   46  A    between atoms: _118  and  _119
REMARK   47  A    between atoms: _118  and  _121
REMARK   48  A    between atoms: _121  and  _122
REMARK   49  A    between atoms: _125  and  _127
REMARK   50  A    between atoms: _127  and  _128
REMARK   51  A    between atoms: _127  and  _130
REMARK   52  A    between atoms: _130  and  _131
REMARK   53  A    between atoms: _137  and  _139
REMARK   54  A    between atoms: _139  and  _140
REMARK   55  A    between atoms: _139  and  _142
REMARK   56  A    between atoms: _142  and  _143
REMARK   57  A    between atoms: _143  and  _144
REMARK   58  A    between atoms: _144  and  _145
REMARK   59  A    between atoms: _155  and  _156
REMARK   60  A    between atoms: _161  and  _163
REMARK   61  A    between atoms: _163  and  _164
REMARK   62  A    between atoms: _163  and  _166
REMARK   63  A    between atoms: _166  and  _167
REMARK   64  A    between atoms: _167  and  _168
REMARK   65  A    between atoms: _170  and  _172
REMARK   66  A    between atoms: _172  and  _173
REMARK   67  A    between atoms: _175  and  _177
REMARK   68  A    between atoms: _177  and  _178
REMARK   69  A    between atoms: _177  and  _180
REMARK   70  A    between atoms: _180  and  _181
REMARK   71  A    between atoms: _184  and  _186
REMARK   72  A    between atoms: _186  and  _187
REMARK   73  A    between atoms: _186  and  _189
REMARK   74  A    between atoms: _189  and  _190
REMARK   75  A    between atoms: _193  and  _195
REMARK   76  A    between atoms: _195  and  _196
REMARK   77  A    between atoms: _195  and  _198
REMARK   78  A    between atoms: _198  and  _199
REMARK   79  A    between atoms: _199  and  _200
REMARK   80  A    between atoms: _200  and  _201
REMARK   81  A    between atoms: _201  and  _202
REMARK   82  A    between atoms: _206  and  _208
REMARK   83  A    between atoms: _208  and  _209
REMARK   84  A    between atoms: _208  and  _211
REMARK   85  A    between atoms: _211  and  _212
REMARK   86  A    between atoms: _217  and  _219
REMARK   87  A    between atoms: _219  and  _220
REMARK   88  A    between atoms: _219  and  _222
REMARK   89  A    between atoms: _222  and  _223
REMARK   90  A    between atoms: _229  and  _231
REMARK   91  A    between atoms: _231  and  _232
REMARK   92  A    between atoms: _231  and  _234
REMARK   93  A    between atoms: _234  and  _235
REMARK   94  A    between atoms: _238  and  _240
REMARK   95  A    between atoms: _240  and  _241
REMARK   96  A    between atoms: _240  and  _243
REMARK   97  A    between atoms: _243  and  _244
REMARK   98  A    between atoms: _247  and  _249
REMARK   99  A    between atoms: _249  and  _250
REMARK  100  A    between atoms: _249  and  _252
REMARK  101  A    between atoms: _252  and  _253
REMARK  102  A    between atoms: _256  and  _258
REMARK  103  A    between atoms: _258  and  _259
REMARK  104  A    between atoms: _261  and  _263
REMARK  105  A    between atoms: _263  and  _264
REMARK  106  A    between atoms: _263  and  _266
REMARK  107  A    between atoms: _266  and  _267
REMARK  108  A    between atoms: _272  and  _273
REMARK  109  A    between atoms: _275  and  _277
REMARK  110  A    between atoms: _277  and  _278
REMARK  111  A    between atoms: _277  and  _280
REMARK  112  A    between atoms: _280  and  _281
REMARK  113  A    between atoms: _284  and  _286
REMARK  114  A    between atoms: _286  and  _287
REMARK  115  A    between atoms: _286  and  _289
REMARK  116  A    between atoms: _289  and  _290
REMARK  117  A    between atoms: _290  and  _291
REMARK  118  A    between atoms: _293  and  _295
REMARK  119  A    between atoms: _295  and  _296
REMARK  120  A    between atoms: _295  and  _298
REMARK  121  A    between atoms: _298  and  _299
REMARK  122  A    between atoms: _299  and  _300
REMARK  123  A    between atoms: _302  and  _304
REMARK  124  A    between atoms: _304  and  _305
REMARK  125  A    between atoms: _304  and  _307
REMARK  126  A    between atoms: _310  and  _312
REMARK  127  A    between atoms: _312  and  _313
REMARK  128  A    between atoms: _312  and  _315
REMARK  129  A    between atoms: _315  and  _316
REMARK  130  A    between atoms: _316  and  _317
REMARK  131  A    between atoms: _317  and  _318
REMARK  132  A    between atoms: _327  and  _329
REMARK  133  A    between atoms: _329  and  _330
REMARK  134  A    between atoms: _329  and  _332
REMARK  135  A    between atoms: _332  and  _333
REMARK  136  A    between atoms: _333  and  _334
REMARK  137  A    between atoms: _336  and  _338
REMARK  138  A    between atoms: _338  and  _339
REMARK  139  A    between atoms: _338  and  _341
REMARK  140  A    between atoms: _341  and  _342
REMARK  141  A    between atoms: _342  and  _343
REMARK  142  A    between atoms: _343  and  _344
REMARK  143  A    between atoms: _344  and  _345
REMARK  144  A    between atoms: _349  and  _351
REMARK  145  A    between atoms: _351  and  _352
REMARK  146  A    between atoms: _354  and  _356
REMARK  147  A    between atoms: _356  and  _357
REMARK  148  A    between atoms: _356  and  _359
REMARK  149  A    between atoms: _359  and  _360
REMARK  150  A    between atoms: _360  and  _361
REMARK  151  A    between atoms: _361  and  MG_407
REMARK  152  A    between atoms: _363  and  _365
REMARK  153  A    between atoms: _365  and  _366
REMARK  154  A    between atoms: _365  and  _368
REMARK  155  A    between atoms: _368  and  _369
REMARK  156  A    between atoms: _372  and  _374
REMARK  157  A    between atoms: _374  and  _375
REMARK  158  A    between atoms: _374  and  _377
REMARK  159  A    between atoms: _377  and  _378
REMARK  160  A    between atoms: _380  and  _382
REMARK  161  A    between atoms: _382  and  _383
REMARK  162  A    between atoms: _382  and  _385
REMARK  163  A    between atoms: _385  and  _386
REMARK  164  A    between atoms: _389  and  _391
REMARK  165  A    between atoms: _391  and  _392
REMARK  166  A    between atoms: _391  and  _394
REMARK  167  A    between atoms: _394  and  _395
REMARK  168  A    between atoms: _395  and  _396
REMARK  169  A    between atoms: _399  and  _401
REMARK  170  A    between atoms: _401  and  _402
REMARK  171  A    between atoms: _401  and  _404
REMARK  172  A    between atoms: _404  and  _405
REMARK                            x       y       z     vdW  Elec       q    Type
REMARK                         _______ _______ _______ _____ _____    ______ ____
ROOT
ATOM      1  CA  LEU A   1      90.966  -9.527  -3.260  0.00  0.00    +0.133 C 
ENDROOT
BRANCH   1   2
ATOM      2  N   LEU A   1      91.559  -9.026  -4.497  0.00  0.00    -0.239 NA
ATOM      3  H   LEU A   1      91.226  -8.123  -4.891  0.00  0.00    +0.142 HD
ENDBRANCH   1   2
BRANCH   1   4
ATOM      4  C   LEU A   1      90.303 -10.891  -3.429  0.00  0.00    +0.224 C 
ATOM      5  O   LEU A   1      90.635 -11.842  -2.721  0.00  0.00    -0.287 OA
ENDBRANCH   1   4
BRANCH   1   6
ATOM      6  CB  LEU A   1      89.923  -8.543  -2.732  0.00  0.00    +0.025 C 
BRANCH   6   7
ATOM      7  CG  LEU A   1      89.879  -8.143  -1.243  0.00  0.00    +0.002 C 
ATOM      8  CD2 LEU A   1      90.676  -9.112  -0.386  0.00  0.00    +0.000 C 
ATOM      9  CD1 LEU A   1      88.420  -8.086  -0.776  0.00  0.00    +0.000 C 
ENDBRANCH   6   7
ENDBRANCH   1   6
TORSDOF 4
REMARK  Name = ../refined-set-2016/1rql/1rql_pocket.pdb
REMARK  172 active torsions:
REMARK  status: ('A' for Active; 'I' for Inactive)
REMARK    1  A    between atoms: _1  and  _3
REMARK    2  A    between atoms: _3  and  _4
REMARK    3  A    between atoms: _3  and  _6
REMARK    4  A    between atoms: _6  and  _7
REMARK    5  A    between atoms: _13  and  _15
REMARK    6  A    between atoms: _15  and  _16
REMARK    7  A    between atoms: _15  and  _18
REMARK    8  A    between atoms: _18  and  _19
REMARK    9  A    between atoms: _22  and  _24
REMARK   10  A    between atoms: _24  and  _25
REMARK   11  A    between atoms: _24  and  _27
REMARK   12  A    between atoms: _27  and  _28
REMARK   13  A    between atoms: _38  and  _40
REMARK   14  A    between atoms: _40  and  _41
REMARK   15  A    between atoms: _41  and  _42
REMARK   16  A    between atoms: _41  and  _44
REMARK   17  A    between atoms: _42  and  MG_407
REMARK   18  A    between atoms: _44  and  _46
REMARK   19  A    between atoms: _46  and  _47
REMARK   20  A    between atoms: _49  and  _51
REMARK   21  A    between atoms: _51  and  _52
REMARK   22  A    between atoms: _51  and  _54
REMARK   23  A    between atoms: _54  and  _55
REMARK   24  A    between atoms: _58  and  _60
REMARK   25  A    between atoms: _60  and  _61
REMARK   26  A    between atoms: _60  and  _63
REMARK   27  A    between atoms: _63  and  _64
REMARK   28  A    between atoms: _67  and  _69
REMARK   29  A    between atoms: _69  and  _70
REMARK   30  A    between atoms: _69  and  _72
REMARK   31  A    between atoms: _75  and  _77
REMARK   32  A    between atoms: _77  and  _78
REMARK   33  A    between atoms: _77  and  _80
REMARK   34  A    between atoms: _80  and  _81
REMARK   35  A    between atoms: _84  and  _86
REMARK   36  A    between atoms: _86  and  _87
REMARK   37  A    between atoms: _86  and  _89
REMARK   38  A    between atoms: _91  and  _93
REMARK   39  A    between atoms: _93  and  _94
REMARK   40  A    between atoms: _93  and  _96
REMARK   41  A    between atoms: _96  and  _97
REMARK   42  A    between atoms: _103  and  _105
REMARK   43  A    between atoms: _105  and  _106
REMARK   44  A    between atoms: _110  and  _111
REMARK   45  A    between atoms: _116  and  _118
REMARK   46  A    between atoms: _118  and  _119
REMARK   47  A    between atoms: _118  and  _121
REMARK   48  A    between atoms: _121  and  _122
REMARK   49  A    between atoms: _125  and  _127
REMARK   50  A    between atoms: _127  and  _128
REMARK   51  A    between atoms: _127  and  _130
REMARK   52  A    between atoms: _130  and  _131
REMARK   53  A    between atoms: _137  and  _139
REMARK   54  A    between atoms: _139  and  _140
REMARK   55  A    between atoms: _139  and  _142
REMARK   56  A    between atoms: _142  and  _143
REMARK   57  A    between atoms: _143  and  _144
REMARK   58  A    between atoms: _144  and  _145
REMARK   59  A    between atoms: _155  and  _156
REMARK   60  A    between atoms: _161  and  _163
REMARK   61  A    between atoms: _163  and  _164
REMARK   62  A    between atoms: _163  and  _166
REMARK   63  A    between atoms: _166  and  _167
REMARK   64  A    between atoms: _167  and  _168
REMARK   65  A    between atoms: _170  and  _172
REMARK   66  A    between atoms: _172  and  _173
REMARK   67  A    between atoms: _175  and  _177
REMARK   68  A    between atoms: _177  and  _178
REMARK   69  A    between atoms: _177  and  _180
REMARK   70  A    between atoms: _180  and  _181
REMARK   71  A    between atoms: _184  and  _186
REMARK   72  A    between atoms: _186  and  _187
REMARK   73  A    between atoms: _186  and  _189
REMARK   74  A    between atoms: _189  and  _190
REMARK   75  A    between atoms: _193  and  _195
REMARK   76  A    between atoms: _195  and  _196
REMARK   77  A    between atoms: _195  and  _198
REMARK   78  A    between atoms: _198  and  _199
REMARK   79  A    between atoms: _199  and  _200
REMARK   80  A    between atoms: _200  and  _201
REMARK   81  A    between atoms: _201  and  _202
REMARK   82  A    between atoms: _206  and  _208
REMARK   83  A    between atoms: _208  and  _209
REMARK   84  A    between atoms: _208  and  _211
REMARK   85  A    between atoms: _211  and  _212
REMARK   86  A    between atoms: _217  and  _219
REMARK   87  A    between atoms: _219  and  _220
REMARK   88  A    between atoms: _219  and  _222
REMARK   89  A    between atoms: _222  and  _223
REMARK   90  A    between atoms: _229  and  _231
REMARK   91  A    between atoms: _231  and  _232
REMARK   92  A    between atoms: _231  and  _234
REMARK   93  A    between atoms: _234  and  _235
REMARK   94  A    between atoms: _238  and  _240
REMARK   95  A    between atoms: _240  and  _241
REMARK   96  A    between atoms: _240  and  _243
REMARK   97  A    between atoms: _243  and  _244
REMARK   98  A    between atoms: _247  and  _249
REMARK   99  A    between atoms: _249  and  _250
REMARK  100  A    between atoms: _249  and  _252
REMARK  101  A    between atoms: _252  and  _253
REMARK  102  A    between atoms: _256  and  _258
REMARK  103  A    between atoms: _258  and  _259
REMARK  104  A    between atoms: _261  and  _263
REMARK  105  A    between atoms: _263  and  _264
REMARK  106  A    between atoms: _263  and  _266
REMARK  107  A    between atoms: _266  and  _267
REMARK  108  A    between atoms: _272  and  _273
REMARK  109  A    between atoms: _275  and  _277
REMARK  110  A    between atoms: _277  and  _278
REMARK  111  A    between atoms: _277  and  _280
REMARK  112  A    between atoms: _280  and  _281
REMARK  113  A    between atoms: _284  and  _286
REMARK  114  A    between atoms: _286  and  _287
REMARK  115  A    between atoms: _286  and  _289
REMARK  116  A    between atoms: _289  and  _290
REMARK  117  A    between atoms: _290  and  _291
REMARK  118  A    between atoms: _293  and  _295
REMARK  119  A    between atoms: _295  and  _296
REMARK  120  A    between atoms: _295  and  _298
REMARK  121  A    between atoms: _298  and  _299
REMARK  122  A    between atoms: _299  and  _300
REMARK  123  A    between atoms: _302  and  _304
REMARK  124  A    between atoms: _304  and  _305
REMARK  125  A    between atoms: _304  and  _307
REMARK  126  A    between atoms: _310  and  _312
REMARK  127  A    between atoms: _312  and  _313
REMARK  128  A    between atoms: _312  and  _315
REMARK  129  A    between atoms: _315  and  _316
REMARK  130  A    between atoms: _316  and  _317
REMARK  131  A    between atoms: _317  and  _318
REMARK  132  A    between atoms: _327  and  _329
REMARK  133  A    between atoms: _329  and  _330
REMARK  134  A    between atoms: _329  and  _332
REMARK  135  A    between atoms: _332  and  _333
REMARK  136  A    between atoms: _333  and  _334
REMARK  137  A    between atoms: _336  and  _338
REMARK  138  A    between atoms: _338  and  _339
REMARK  139  A    between atoms: _338  and  _341
REMARK  140  A    between atoms: _341  and  _342
REMARK  141  A    between atoms: _342  and  _343
REMARK  142  A    between atoms: _343  and  _344
REMARK  143  A    between atoms: _344  and  _345
REMARK  144  A    between atoms: _349  and  _351
REMARK  145  A    between atoms: _351  and  _352
REMARK  146  A    between atoms: _354  and  _356
REMARK  147  A    between atoms: _356  and  _357
REMARK  148  A    between atoms: _356  and  _359
REMARK  149  A    between atoms: _359  and  _360
REMARK  150  A    between atoms: _360  and  _361
REMARK  151  A    between atoms: _361  and  MG_407
REMARK  152  A    between atoms: _363  and  _365
REMARK  153  A    between atoms: _365  and  _366
REMARK  154  A    between atoms: _365  and  _368
REMARK  155  A    between atoms: _368  and  _369
REMARK  156  A    between atoms: _372  and  _374
REMARK  157  A    between atoms: _374  and  _375
REMARK  158  A    between atoms: _374  and  _377
REMARK  159  A    between atoms: _377  and  _378
REMARK  160  A    between atoms: _380  and  _382
REMARK  161  A    between atoms: _382  and  _383
REMARK  162  A    between atoms: _382  and  _385
REMARK  163  A    between atoms: _385  and  _386
REMARK  164  A    between atoms: _389  and  _391
REMARK  165  A    between atoms: _391  and  _392
REMARK  166  A    between atoms: _391  and  _394
REMARK  167  A    between atoms: _394  and  _395
REMARK  168  A    between atoms: _395  and  _396
REMARK  169  A    between atoms: _399  and  _401
REMARK  170  A    between atoms: _401  and  _402
REMARK  171  A    between atoms: _401  and  _404
REMARK  172  A    between atoms: _404  and  _405
REMARK                            x       y       z     vdW  Elec       q    Type
REMARK                         _______ _______ _______ _____ _____    ______ ____
ROOT
ATOM      1  C   GLY A   3      82.814  -4.487   4.155  0.00  0.00    +0.243 C 
ATOM      2  N   TYR A   4      82.947  -5.817   4.164  0.00  0.00    -0.297 N 
ATOM      3  H   TYR A   4      83.012  -6.306   5.079  0.00  0.00    +0.150 HD
ATOM      4  O   GLY A   3      82.779  -3.815   3.124  0.00  0.00    -0.273 OA
ENDROOT
BRANCH   1   5
ATOM      5  CA  GLY A   3      82.729  -3.814   5.509  0.00  0.00    +0.176 C 
BRANCH   5   8
ATOM      6  C   THR A   2      81.246  -4.955   7.043  0.00  0.00    +0.243 C 
ATOM      7  O   THR A   2      80.293  -4.240   6.745  0.00  0.00    -0.273 OA
ATOM      8  N   GLY A   3      82.455  -4.814   6.510  0.00  0.00    -0.295 N 
ATOM      9  H   GLY A   3      83.223  -5.441   6.823  0.00  0.00    +0.150 HD
BRANCH   6  10
ATOM     10  CA  THR A   2      81.099  -6.093   8.070  0.00  0.00    +0.176 C 
BRANCH  10  13
ATOM     11  C   THR A   1      79.656  -6.722   9.883  0.00  0.00    +0.241 C 
ATOM     12  O   THR A   1      80.618  -7.159  10.530  0.00  0.00    -0.274 OA
ATOM     13  N   THR A   2      79.793  -6.138   8.701  0.00  0.00    -0.295 N 
ATOM     14  H   THR A   2      78.969  -5.714   8.228  0.00  0.00    +0.150 HD
BRANCH  11  15
ATOM     15  CA  THR A   1      78.247  -6.811  10.435  0.00  0.00    +0.172 C 
BRANCH  15  16
ATOM     16  N   THR A   1      78.257  -7.873  11.445  0.00  0.00    -0.236 NA
ATOM     17  H   THR A   1      79.048  -7.914  12.119  0.00  0.00    +0.142 HD
ENDBRANCH  15  16
BRANCH  15  18
ATOM     18  CB  THR A   1      77.836  -5.429  11.003  0.00  0.00    +0.135 C 
ATOM     19  CG2 THR A   1      76.440  -5.501  11.607  0.00  0.00    +0.034 C 
BRANCH  18  20
ATOM     20  OG1 THR A   1      78.781  -5.009  12.000  0.00  0.00    -0.383 OA
ATOM     21  HG1 THR A   1      78.511  -4.126  12.357  0.00  0.00    +0.210 HD
ENDBRANCH  18  20
ENDBRANCH  15  18
ENDBRANCH  11  15
ENDBRANCH  10  13
BRANCH  10  22
ATOM     22  CB  THR A   2      81.332  -7.444   7.375  0.00  0.00    +0.137 C 
ATOM     23  CG2 THR A   2      80.331  -7.603   6.229  0.00  0.00    +0.034 C 
BRANCH  22  24
ATOM     24  OG1 THR A   2      82.667  -7.524   6.865  0.00  0.00    -0.382 OA
ATOM     25  HG1 THR A   2      83.310  -7.431   7.612  0.00  0.00    +0.210 HD
ENDBRANCH  22  24
ENDBRANCH  10  22
ENDBRANCH   6  10
ENDBRANCH   5   8
ENDBRANCH   1   5
BRANCH   2  26
ATOM     26  CA  TYR A   4      83.005  -6.610   2.939  0.00  0.00    +0.153 C 
BRANCH  26  27
ATOM     27  C   TYR A   4      81.640  -6.575   2.240  0.00  0.00    +0.241 C 
ATOM     28  O   TYR A   4      80.595  -6.450   2.899  0.00  0.00    -0.273 OA
ATOM     29  N   THR A   5      81.641  -6.702   0.915  0.00  0.00    -0.296 N 
ATOM     30  H   THR A   5      82.543  -6.785   0.404  0.00  0.00    +0.150 HD
BRANCH  29  31
ATOM     31  CA  THR A   5      80.381  -6.725   0.173  0.00  0.00    +0.164 C 
BRANCH  31  32
ATOM     32  CB  THR A   5      80.594  -6.494  -1.349  0.00  0.00    +0.136 C 
ATOM     33  CG2 THR A   5      81.302  -5.144  -1.608  0.00  0.00    +0.034 C 
BRANCH  32  34
ATOM     34  OG1 THR A   5      81.364  -7.575  -1.897  0.00  0.00    -0.382 OA
ATOM     35  HG1 THR A   5      81.498  -7.425  -2.866  0.00  0.00    +0.210 HD
ENDBRANCH  32  34
ENDBRANCH  31  32
BRANCH  31  36
ATOM     36  C   THR A   5      79.745  -8.107   0.364  0.00  0.00    +0.229 C 
ATOM     37  O   THR A   5      80.354  -9.002   0.965  0.00  0.00    -0.286 OA
ENDBRANCH  31  36
ENDBRANCH  29  31
ENDBRANCH  26  27
BRANCH  26  38
ATOM     38  CB  TYR A   4      83.326  -8.081   3.260  0.00  0.00    +0.055 C 
BRANCH  38  39
ATOM     39  CG  TYR A   4      84.769  -8.383   3.591  0.00  0.00    -0.020 A 
ATOM     40  CD2 TYR A   4      85.105  -9.233   4.644  0.00  0.00    -0.001 A 
ATOM     41  CE2 TYR A   4      86.437  -9.516   4.931  0.00  0.00    +0.036 A 
ATOM     42  CZ  TYR A   4      87.433  -8.943   4.160  0.00  0.00    +0.134 A 
ATOM     43  CE1 TYR A   4      87.120  -8.105   3.118  0.00  0.00    +0.036 A 
ATOM     44  CD1 TYR A   4      85.799  -7.828   2.837  0.00  0.00    -0.001 A 
BRANCH  42  45
ATOM     45  OH  TYR A   4      88.754  -9.191   4.413  0.00  0.00    -0.506 OA
ATOM     46  HH  TYR A   4      88.928 -10.162   4.329  0.00  0.00    +0.292 HD
ENDBRANCH  42  45
ENDBRANCH  38  39
ENDBRANCH  26  38
ENDBRANCH   2  26
TORSDOF 19
REMARK  Name = ../refined-set-2016/1rql/1rql_pocket.pdb
REMARK  172 active torsions:
REMARK  status: ('A' for Active; 'I' for Inactive)
REMARK    1  A    between atoms: _1  and  _3
REMARK    2  A    between atoms: _3  and  _4
REMARK    3  A    between atoms: _3  and  _6
REMARK    4  A    between atoms: _6  and  _7
REMARK    5  A    between atoms: _13  and  _15
REMARK    6  A    between atoms: _15  and  _16
REMARK    7  A    between atoms: _15  and  _18
REMARK    8  A    between atoms: _18  and  _19
REMARK    9  A    between atoms: _22  and  _24
REMARK   10  A    between atoms: _24  and  _25
REMARK   11  A    between atoms: _24  and  _27
REMARK   12  A    between atoms: _27  and  _28
REMARK   13  A    between atoms: _38  and  _40
REMARK   14  A    between atoms: _40  and  _41
REMARK   15  A    between atoms: _41  and  _42
REMARK   16  A    between atoms: _41  and  _44
REMARK   17  A    between atoms: _42  and  MG_407
REMARK   18  A    between atoms: _44  and  _46
REMARK   19  A    between atoms: _46  and  _47
REMARK   20  A    between atoms: _49  and  _51
REMARK   21  A    between atoms: _51  and  _52
REMARK   22  A    between atoms: _51  and  _54
REMARK   23  A    between atoms: _54  and  _55
REMARK   24  A    between atoms: _58  and  _60
REMARK   25  A    between atoms: _60  and  _61
REMARK   26  A    between atoms: _60  and  _63
REMARK   27  A    between atoms: _63  and  _64
REMARK   28  A    between atoms: _67  and  _69
REMARK   29  A    between atoms: _69  and  _70
REMARK   30  A    between atoms: _69  and  _72
REMARK   31  A    between atoms: _75  and  _77
REMARK   32  A    between atoms: _77  and  _78
REMARK   33  A    between atoms: _77  and  _80
REMARK   34  A    between atoms: _80  and  _81
REMARK   35  A    between atoms: _84  and  _86
REMARK   36  A    between atoms: _86  and  _87
REMARK   37  A    between atoms: _86  and  _89
REMARK   38  A    between atoms: _91  and  _93
REMARK   39  A    between atoms: _93  and  _94
REMARK   40  A    between atoms: _93  and  _96
REMARK   41  A    between atoms: _96  and  _97
REMARK   42  A    between atoms: _103  and  _105
REMARK   43  A    between atoms: _105  and  _106
REMARK   44  A    between atoms: _110  and  _111
REMARK   45  A    between atoms: _116  and  _118
REMARK   46  A    between atoms: _118  and  _119
REMARK   47  A    between atoms: _118  and  _121
REMARK   48  A    between atoms: _121  and  _122
REMARK   49  A    between atoms: _125  and  _127
REMARK   50  A    between atoms: _127  and  _128
REMARK   51  A    between atoms: _127  and  _130
REMARK   52  A    between atoms: _130  and  _131
REMARK   53  A    between atoms: _137  and  _139
REMARK   54  A    between atoms: _139  and  _140
REMARK   55  A    between atoms: _139  and  _142
REMARK   56  A    between atoms: _142  and  _143
REMARK   57  A    between atoms: _143  and  _144
REMARK   58  A    between atoms: _144  and  _145
REMARK   59  A    between atoms: _155  and  _156
REMARK   60  A    between atoms: _161  and  _163
REMARK   61  A    between atoms: _163  and  _164
REMARK   62  A    between atoms: _163  and  _166
REMARK   63  A    between atoms: _166  and  _167
REMARK   64  A    between atoms: _167  and  _168
REMARK   65  A    between atoms: _170  and  _172
REMARK   66  A    between atoms: _172  and  _173
REMARK   67  A    between atoms: _175  and  _177
REMARK   68  A    between atoms: _177  and  _178
REMARK   69  A    between atoms: _177  and  _180
REMARK   70  A    between atoms: _180  and  _181
REMARK   71  A    between atoms: _184  and  _186
REMARK   72  A    between atoms: _186  and  _187
REMARK   73  A    between atoms: _186  and  _189
REMARK   74  A    between atoms: _189  and  _190
REMARK   75  A    between atoms: _193  and  _195
REMARK   76  A    between atoms: _195  and  _196
REMARK   77  A    between atoms: _195  and  _198
REMARK   78  A    between atoms: _198  and  _199
REMARK   79  A    between atoms: _199  and  _200
REMARK   80  A    between atoms: _200  and  _201
REMARK   81  A    between atoms: _201  and  _202
REMARK   82  A    between atoms: _206  and  _208
REMARK   83  A    between atoms: _208  and  _209
REMARK   84  A    between atoms: _208  and  _211
REMARK   85  A    between atoms: _211  and  _212
REMARK   86  A    between atoms: _217  and  _219
REMARK   87  A    between atoms: _219  and  _220
REMARK   88  A    between atoms: _219  and  _222
REMARK   89  A    between atoms: _222  and  _223
REMARK   90  A    between atoms: _229  and  _231
REMARK   91  A    between atoms: _231  and  _232
REMARK   92  A    between atoms: _231  and  _234
REMARK   93  A    between atoms: _234  and  _235
REMARK   94  A    between atoms: _238  and  _240
REMARK   95  A    between atoms: _240  and  _241
REMARK   96  A    between atoms: _240  and  _243
REMARK   97  A    between atoms: _243  and  _244
REMARK   98  A    between atoms: _247  and  _249
REMARK   99  A    between atoms: _249  and  _250
REMARK  100  A    between atoms: _249  and  _252
REMARK  101  A    between atoms: _252  and  _253
REMARK  102  A    between atoms: _256  and  _258
REMARK  103  A    between atoms: _258  and  _259
REMARK  104  A    between atoms: _261  and  _263
REMARK  105  A    between atoms: _263  and  _264
REMARK  106  A    between atoms: _263  and  _266
REMARK  107  A    between atoms: _266  and  _267
REMARK  108  A    between atoms: _272  and  _273
REMARK  109  A    between atoms: _275  and  _277
REMARK  110  A    between atoms: _277  and  _278
REMARK  111  A    between atoms: _277  and  _280
REMARK  112  A    between atoms: _280  and  _281
REMARK  113  A    between atoms: _284  and  _286
REMARK  114  A    between atoms: _286  and  _287
REMARK  115  A    between atoms: _286  and  _289
REMARK  116  A    between atoms: _289  and  _290
REMARK  117  A    between atoms: _290  and  _291
REMARK  118  A    between atoms: _293  and  _295
REMARK  119  A    between atoms: _295  and  _296
REMARK  120  A    between atoms: _295  and  _298
REMARK  121  A    between atoms: _298  and  _299
REMARK  122  A    between atoms: _299  and  _300
REMARK  123  A    between atoms: _302  and  _304
REMARK  124  A    between atoms: _304  and  _305
REMARK  125  A    between atoms: _304  and  _307
REMARK  126  A    between atoms: _310  and  _312
REMARK  127  A    between atoms: _312  and  _313
REMARK  128  A    between atoms: _312  and  _315
REMARK  129  A    between atoms: _315  and  _316
REMARK  130  A    between atoms: _316  and  _317
REMARK  131  A    between atoms: _317  and  _318
REMARK  132  A    between atoms: _327  and  _329
REMARK  133  A    between atoms: _329  and  _330
REMARK  134  A    between atoms: _329  and  _332
REMARK  135  A    between atoms: _332  and  _333
REMARK  136  A    between atoms: _333  and  _334
REMARK  137  A    between atoms: _336  and  _338
REMARK  138  A    between atoms: _338  and  _339
REMARK  139  A    between atoms: _338  and  _341
REMARK  140  A    between atoms: _341  and  _342
REMARK  141  A    between atoms: _342  and  _343
REMARK  142  A    between atoms: _343  and  _344
REMARK  143  A    between atoms: _344  and  _345
REMARK  144  A    between atoms: _349  and  _351
REMARK  145  A    between atoms: _351  and  _352
REMARK  146  A    between atoms: _354  and  _356
REMARK  147  A    between atoms: _356  and  _357
REMARK  148  A    between atoms: _356  and  _359
REMARK  149  A    between atoms: _359  and  _360
REMARK  150  A    between atoms: _360  and  _361
REMARK  151  A    between atoms: _361  and  MG_407
REMARK  152  A    between atoms: _363  and  _365
REMARK  153  A    between atoms: _365  and  _366
REMARK  154  A    between atoms: _365  and  _368
REMARK  155  A    between atoms: _368  and  _369
REMARK  156  A    between atoms: _372  and  _374
REMARK  157  A    between atoms: _374  and  _375
REMARK  158  A    between atoms: _374  and  _377
REMARK  159  A    between atoms: _377  and  _378
REMARK  160  A    between atoms: _380  and  _382
REMARK  161  A    between atoms: _382  and  _383
REMARK  162  A    between atoms: _382  and  _385
REMARK  163  A    between atoms: _385  and  _386
REMARK  164  A    between atoms: _389  and  _391
REMARK  165  A    between atoms: _391  and  _392
REMARK  166  A    between atoms: _391  and  _394
REMARK  167  A    between atoms: _394  and  _395
REMARK  168  A    between atoms: _395  and  _396
REMARK  169  A    between atoms: _399  and  _401
REMARK  170  A    between atoms: _401  and  _402
REMARK  171  A    between atoms: _401  and  _404
REMARK  172  A    between atoms: _404  and  _405
REMARK                            x       y       z     vdW  Elec       q    Type
REMARK                         _______ _______ _______ _____ _____    ______ ____
ROOT
ATOM      1  C   MET A   1      82.580 -11.978   0.430  0.00  0.00    +0.238 C 
ATOM      2  N   MET A   2      81.542 -11.599   1.172  0.00  0.00    -0.298 N 
ATOM      3  H   MET A   2      81.036 -10.722   0.937  0.00  0.00    +0.150 HD
ATOM      4  O   MET A   1      83.217 -13.013   0.647  0.00  0.00    -0.274 OA
ENDROOT
BRANCH   1   5
ATOM      5  CA  MET A   1      82.960 -11.068  -0.736  0.00  0.00    +0.146 C 
BRANCH   5   6
ATOM      6  N   MET A   1      81.751 -10.722  -1.469  0.00  0.00    -0.238 NA
ATOM      7  H   MET A   1      81.414  -9.738  -1.466  0.00  0.00    +0.142 HD
ENDBRANCH   5   6
BRANCH   5   8
ATOM      8  CB  MET A   1      83.649  -9.809  -0.202  0.00  0.00    +0.038 C 
BRANCH   8   9
ATOM      9  CG  MET A   1      84.273  -8.938  -1.278  0.00  0.00    +0.060 C 
BRANCH   9  10
ATOM     10  SD  MET A   1      84.781  -7.295  -0.680  0.00  0.00    -0.139 S 
ATOM     11  CE  MET A   1      85.011  -6.464  -2.204  0.00  0.00    +0.069 C 
ENDBRANCH   9  10
ENDBRANCH   8   9
ENDBRANCH   5   8
ENDBRANCH   1   5
BRANCH   2  12
ATOM     12  CA  MET A   2      81.106 -12.399   2.311  0.00  0.00    +0.138 C 
BRANCH  12  13
ATOM     13  C   MET A   2      80.662 -13.799   1.918  0.00  0.00    +0.227 C 
ATOM     14  O   MET A   2      80.625 -14.699   2.756  0.00  0.00    -0.286 OA
ENDBRANCH  12  13
BRANCH  12  15
ATOM     15  CB  MET A   2      79.969 -11.709   3.065  0.00  0.00    +0.039 C 
BRANCH  15  16
ATOM     16  CG  MET A   2      80.446 -10.586   3.938  0.00  0.00    +0.060 C 
BRANCH  16  17
ATOM     17  SD  MET A   2      81.874 -11.127   4.890  0.00  0.00    -0.139 S 
ATOM     18  CE  MET A   2      81.075 -12.096   6.151  0.00  0.00    +0.069 C 
ENDBRANCH  16  17
ENDBRANCH  15  16
ENDBRANCH  12  15
ENDBRANCH   2  12
TORSDOF 10
REMARK  Name = ../refined-set-2016/1rql/1rql_pocket.pdb
REMARK  172 active torsions:
REMARK  status: ('A' for Active; 'I' for Inactive)
REMARK    1  A    between atoms: _1  and  _3
REMARK    2  A    between atoms: _3  and  _4
REMARK    3  A    between atoms: _3  and  _6
REMARK    4  A    between atoms: _6  and  _7
REMARK    5  A    between atoms: _13  and  _15
REMARK    6  A    between atoms: _15  and  _16
REMARK    7  A    between atoms: _15  and  _18
REMARK    8  A    between atoms: _18  and  _19
REMARK    9  A    between atoms: _22  and  _24
REMARK   10  A    between atoms: _24  and  _25
REMARK   11  A    between atoms: _24  and  _27
REMARK   12  A    between atoms: _27  and  _28
REMARK   13  A    between atoms: _38  and  _40
REMARK   14  A    between atoms: _40  and  _41
REMARK   15  A    between atoms: _41  and  _42
REMARK   16  A    between atoms: _41  and  _44
REMARK   17  A    between atoms: _42  and  MG_407
REMARK   18  A    between atoms: _44  and  _46
REMARK   19  A    between atoms: _46  and  _47
REMARK   20  A    between atoms: _49  and  _51
REMARK   21  A    between atoms: _51  and  _52
REMARK   22  A    between atoms: _51  and  _54
REMARK   23  A    between atoms: _54  and  _55
REMARK   24  A    between atoms: _58  and  _60
REMARK   25  A    between atoms: _60  and  _61
REMARK   26  A    between atoms: _60  and  _63
REMARK   27  A    between atoms: _63  and  _64
REMARK   28  A    between atoms: _67  and  _69
REMARK   29  A    between atoms: _69  and  _70
REMARK   30  A    between atoms: _69  and  _72
REMARK   31  A    between atoms: _75  and  _77
REMARK   32  A    between atoms: _77  and  _78
REMARK   33  A    between atoms: _77  and  _80
REMARK   34  A    between atoms: _80  and  _81
REMARK   35  A    between atoms: _84  and  _86
REMARK   36  A    between atoms: _86  and  _87
REMARK   37  A    between atoms: _86  and  _89
REMARK   38  A    between atoms: _91  and  _93
REMARK   39  A    between atoms: _93  and  _94
REMARK   40  A    between atoms: _93  and  _96
REMARK   41  A    between atoms: _96  and  _97
REMARK   42  A    between atoms: _103  and  _105
REMARK   43  A    between atoms: _105  and  _106
REMARK   44  A    between atoms: _110  and  _111
REMARK   45  A    between atoms: _116  and  _118
REMARK   46  A    between atoms: _118  and  _119
REMARK   47  A    between atoms: _118  and  _121
REMARK   48  A    between atoms: _121  and  _122
REMARK   49  A    between atoms: _125  and  _127
REMARK   50  A    between atoms: _127  and  _128
REMARK   51  A    between atoms: _127  and  _130
REMARK   52  A    between atoms: _130  and  _131
REMARK   53  A    between atoms: _137  and  _139
REMARK   54  A    between atoms: _139  and  _140
REMARK   55  A    between atoms: _139  and  _142
REMARK   56  A    between atoms: _142  and  _143
REMARK   57  A    between atoms: _143  and  _144
REMARK   58  A    between atoms: _144  and  _145
REMARK   59  A    between atoms: _155  and  _156
REMARK   60  A    between atoms: _161  and  _163
REMARK   61  A    between atoms: _163  and  _164
REMARK   62  A    between atoms: _163  and  _166
REMARK   63  A    between atoms: _166  and  _167
REMARK   64  A    between atoms: _167  and  _168
REMARK   65  A    between atoms: _170  and  _172
REMARK   66  A    between atoms: _172  and  _173
REMARK   67  A    between atoms: _175  and  _177
REMARK   68  A    between atoms: _177  and  _178
REMARK   69  A    between atoms: _177  and  _180
REMARK   70  A    between atoms: _180  and  _181
REMARK   71  A    between atoms: _184  and  _186
REMARK   72  A    between atoms: _186  and  _187
REMARK   73  A    between atoms: _186  and  _189
REMARK   74  A    between atoms: _189  and  _190
REMARK   75  A    between atoms: _193  and  _195
REMARK   76  A    between atoms: _195  and  _196
REMARK   77  A    between atoms: _195  and  _198
REMARK   78  A    between atoms: _198  and  _199
REMARK   79  A    between atoms: _199  and  _200
REMARK   80  A    between atoms: _200  and  _201
REMARK   81  A    between atoms: _201  and  _202
REMARK   82  A    between atoms: _206  and  _208
REMARK   83  A    between atoms: _208  and  _209
REMARK   84  A    between atoms: _208  and  _211
REMARK   85  A    between atoms: _211  and  _212
REMARK   86  A    between atoms: _217  and  _219
REMARK   87  A    between atoms: _219  and  _220
REMARK   88  A    between atoms: _219  and  _222
REMARK   89  A    between atoms: _222  and  _223
REMARK   90  A    between atoms: _229  and  _231
REMARK   91  A    between atoms: _231  and  _232
REMARK   92  A    between atoms: _231  and  _234
REMARK   93  A    between atoms: _234  and  _235
REMARK   94  A    between atoms: _238  and  _240
REMARK   95  A    between atoms: _240  and  _241
REMARK   96  A    between atoms: _240  and  _243
REMARK   97  A    between atoms: _243  and  _244
REMARK   98  A    between atoms: _247  and  _249
REMARK   99  A    between atoms: _249  and  _250
REMARK  100  A    between atoms: _249  and  _252
REMARK  101  A    between atoms: _252  and  _253
REMARK  102  A    between atoms: _256  and  _258
REMARK  103  A    between atoms: _258  and  _259
REMARK  104  A    between atoms: _261  and  _263
REMARK  105  A    between atoms: _263  and  _264
REMARK  106  A    between atoms: _263  and  _266
REMARK  107  A    between atoms: _266  and  _267
REMARK  108  A    between atoms: _272  and  _273
REMARK  109  A    between atoms: _275  and  _277
REMARK  110  A    between atoms: _277  and  _278
REMARK  111  A    between atoms: _277  and  _280
REMARK  112  A    between atoms: _280  and  _281
REMARK  113  A    between atoms: _284  and  _286
REMARK  114  A    between atoms: _286  and  _287
REMARK  115  A    between atoms: _286  and  _289
REMARK  116  A    between atoms: _289  and  _290
REMARK  117  A    between atoms: _290  and  _291
REMARK  118  A    between atoms: _293  and  _295
REMARK  119  A    between atoms: _295  and  _296
REMARK  120  A    between atoms: _295  and  _298
REMARK  121  A    between atoms: _298  and  _299
REMARK  122  A    between atoms: _299  and  _300
REMARK  123  A    between atoms: _302  and  _304
REMARK  124  A    between atoms: _304  and  _305
REMARK  125  A    between atoms: _304  and  _307
REMARK  126  A    between atoms: _310  and  _312
REMARK  127  A    between atoms: _312  and  _313
REMARK  128  A    between atoms: _312  and  _315
REMARK  129  A    between atoms: _315  and  _316
REMARK  130  A    between atoms: _316  and  _317
REMARK  131  A    between atoms: _317  and  _318
REMARK  132  A    between atoms: _327  and  _329
REMARK  133  A    between atoms: _329  and  _330
REMARK  134  A    between atoms: _329  and  _332
REMARK  135  A    between atoms: _332  and  _333
REMARK  136  A    between atoms: _333  and  _334
REMARK  137  A    between atoms: _336  and  _338
REMARK  138  A    between atoms: _338  and  _339
REMARK  139  A    between atoms: _338  and  _341
REMARK  140  A    between atoms: _341  and  _342
REMARK  141  A    between atoms: _342  and  _343
REMARK  142  A    between atoms: _343  and  _344
REMARK  143  A    between atoms: _344  and  _345
REMARK  144  A    between atoms: _349  and  _351
REMARK  145  A    between atoms: _351  and  _352
REMARK  146  A    between atoms: _354  and  _356
REMARK  147  A    between atoms: _356  and  _357
REMARK  148  A    between atoms: _356  and  _359
REMARK  149  A    between atoms: _359  and  _360
REMARK  150  A    between atoms: _360  and  _361
REMARK  151  A    between atoms: _361  and  MG_407
REMARK  152  A    between atoms: _363  and  _365
REMARK  153  A    between atoms: _365  and  _366
REMARK  154  A    between atoms: _365  and  _368
REMARK  155  A    between atoms: _368  and  _369
REMARK  156  A    between atoms: _372  and  _374
REMARK  157  A    between atoms: _374  and  _375
REMARK  158  A    between atoms: _374  and  _377
REMARK  159  A    between atoms: _377  and  _378
REMARK  160  A    between atoms: _380  and  _382
REMARK  161  A    between atoms: _382  and  _383
REMARK  162  A    between atoms: _382  and  _385
REMARK  163  A    between atoms: _385  and  _386
REMARK  164  A    between atoms: _389  and  _391
REMARK  165  A    between atoms: _391  and  _392
REMARK  166  A    between atoms: _391  and  _394
REMARK  167  A    between atoms: _394  and  _395
REMARK  168  A    between atoms: _395  and  _396
REMARK  169  A    between atoms: _399  and  _401
REMARK  170  A    between atoms: _401  and  _402
REMARK  171  A    between atoms: _401  and  _404
REMARK  172  A    between atoms: _404  and  _405
REMARK                            x       y       z     vdW  Elec       q    Type
REMARK                         _______ _______ _______ _____ _____    ______ ____
ROOT
ATOM      1  CA  VAL A   1      84.463 -15.583   3.422  0.00  0.00    +0.133 C 
ENDROOT
BRANCH   1   2
ATOM      2  CB  VAL A   1      84.608 -14.156   3.979  0.00  0.00    +0.023 C 
ATOM      3  CG2 VAL A   1      85.135 -14.207   5.403  0.00  0.00    +0.002 C 
ATOM      4  CG1 VAL A   1      85.545 -13.346   3.093  0.00  0.00    +0.002 C 
ENDBRANCH   1   2
BRANCH   1   5
ATOM      5  N   VAL A   1      84.030 -15.562   2.034  0.00  0.00    -0.239 NA
ATOM      6  H   VAL A   1      83.835 -14.648   1.577  0.00  0.00    +0.142 HD
ENDBRANCH   1   5
BRANCH   1   7
ATOM      7  C   VAL A   1      83.560 -16.374   4.369  0.00  0.00    +0.224 C 
ATOM      8  O   VAL A   1      84.054 -17.176   5.161  0.00  0.00    -0.287 OA
ENDBRANCH   1   7
TORSDOF 3
REMARK  Name = ../refined-set-2016/1rql/1rql_pocket.pdb
REMARK  172 active torsions:
REMARK  status: ('A' for Active; 'I' for Inactive)
REMARK    1  A    between atoms: _1  and  _3
REMARK    2  A    between atoms: _3  and  _4
REMARK    3  A    between atoms: _3  and  _6
REMARK    4  A    between atoms: _6  and  _7
REMARK    5  A    between atoms: _13  and  _15
REMARK    6  A    between atoms: _15  and  _16
REMARK    7  A    between atoms: _15  and  _18
REMARK    8  A    between atoms: _18  and  _19
REMARK    9  A    between atoms: _22  and  _24
REMARK   10  A    between atoms: _24  and  _25
REMARK   11  A    between atoms: _24  and  _27
REMARK   12  A    between atoms: _27  and  _28
REMARK   13  A    between atoms: _38  and  _40
REMARK   14  A    between atoms: _40  and  _41
REMARK   15  A    between atoms: _41  and  _42
REMARK   16  A    between atoms: _41  and  _44
REMARK   17  A    between atoms: _42  and  MG_407
REMARK   18  A    between atoms: _44  and  _46
REMARK   19  A    between atoms: _46  and  _47
REMARK   20  A    between atoms: _49  and  _51
REMARK   21  A    between atoms: _51  and  _52
REMARK   22  A    between atoms: _51  and  _54
REMARK   23  A    between atoms: _54  and  _55
REMARK   24  A    between atoms: _58  and  _60
REMARK   25  A    between atoms: _60  and  _61
REMARK   26  A    between atoms: _60  and  _63
REMARK   27  A    between atoms: _63  and  _64
REMARK   28  A    between atoms: _67  and  _69
REMARK   29  A    between atoms: _69  and  _70
REMARK   30  A    between atoms: _69  and  _72
REMARK   31  A    between atoms: _75  and  _77
REMARK   32  A    between atoms: _77  and  _78
REMARK   33  A    between atoms: _77  and  _80
REMARK   34  A    between atoms: _80  and  _81
REMARK   35  A    between atoms: _84  and  _86
REMARK   36  A    between atoms: _86  and  _87
REMARK   37  A    between atoms: _86  and  _89
REMARK   38  A    between atoms: _91  and  _93
REMARK   39  A    between atoms: _93  and  _94
REMARK   40  A    between atoms: _93  and  _96
REMARK   41  A    between atoms: _96  and  _97
REMARK   42  A    between atoms: _103  and  _105
REMARK   43  A    between atoms: _105  and  _106
REMARK   44  A    between atoms: _110  and  _111
REMARK   45  A    between atoms: _116  and  _118
REMARK   46  A    between atoms: _118  and  _119
REMARK   47  A    between atoms: _118  and  _121
REMARK   48  A    between atoms: _121  and  _122
REMARK   49  A    between atoms: _125  and  _127
REMARK   50  A    between atoms: _127  and  _128
REMARK   51  A    between atoms: _127  and  _130
REMARK   52  A    between atoms: _130  and  _131
REMARK   53  A    between atoms: _137  and  _139
REMARK   54  A    between atoms: _139  and  _140
REMARK   55  A    between atoms: _139  and  _142
REMARK   56  A    between atoms: _142  and  _143
REMARK   57  A    between atoms: _143  and  _144
REMARK   58  A    between atoms: _144  and  _145
REMARK   59  A    between atoms: _155  and  _156
REMARK   60  A    between atoms: _161  and  _163
REMARK   61  A    between atoms: _163  and  _164
REMARK   62  A    between atoms: _163  and  _166
REMARK   63  A    between atoms: _166  and  _167
REMARK   64  A    between atoms: _167  and  _168
REMARK   65  A    between atoms: _170  and  _172
REMARK   66  A    between atoms: _172  and  _173
REMARK   67  A    between atoms: _175  and  _177
REMARK   68  A    between atoms: _177  and  _178
REMARK   69  A    between atoms: _177  and  _180
REMARK   70  A    between atoms: _180  and  _181
REMARK   71  A    between atoms: _184  and  _186
REMARK   72  A    between atoms: _186  and  _187
REMARK   73  A    between atoms: _186  and  _189
REMARK   74  A    between atoms: _189  and  _190
REMARK   75  A    between atoms: _193  and  _195
REMARK   76  A    between atoms: _195  and  _196
REMARK   77  A    between atoms: _195  and  _198
REMARK   78  A    between atoms: _198  and  _199
REMARK   79  A    between atoms: _199  and  _200
REMARK   80  A    between atoms: _200  and  _201
REMARK   81  A    between atoms: _201  and  _202
REMARK   82  A    between atoms: _206  and  _208
REMARK   83  A    between atoms: _208  and  _209
REMARK   84  A    between atoms: _208  and  _211
REMARK   85  A    between atoms: _211  and  _212
REMARK   86  A    between atoms: _217  and  _219
REMARK   87  A    between atoms: _219  and  _220
REMARK   88  A    between atoms: _219  and  _222
REMARK   89  A    between atoms: _222  and  _223
REMARK   90  A    between atoms: _229  and  _231
REMARK   91  A    between atoms: _231  and  _232
REMARK   92  A    between atoms: _231  and  _234
REMARK   93  A    between atoms: _234  and  _235
REMARK   94  A    between atoms: _238  and  _240
REMARK   95  A    between atoms: _240  and  _241
REMARK   96  A    between atoms: _240  and  _243
REMARK   97  A    between atoms: _243  and  _244
REMARK   98  A    between atoms: _247  and  _249
REMARK   99  A    between atoms: _249  and  _250
REMARK  100  A    between atoms: _249  and  _252
REMARK  101  A    between atoms: _252  and  _253
REMARK  102  A    between atoms: _256  and  _258
REMARK  103  A    between atoms: _258  and  _259
REMARK  104  A    between atoms: _261  and  _263
REMARK  105  A    between atoms: _263  and  _264
REMARK  106  A    between atoms: _263  and  _266
REMARK  107  A    between atoms: _266  and  _267
REMARK  108  A    between atoms: _272  and  _273
REMARK  109  A    between atoms: _275  and  _277
REMARK  110  A    between atoms: _277  and  _278
REMARK  111  A    between atoms: _277  and  _280
REMARK  112  A    between atoms: _280  and  _281
REMARK  113  A    between atoms: _284  and  _286
REMARK  114  A    between atoms: _286  and  _287
REMARK  115  A    between atoms: _286  and  _289
REMARK  116  A    between atoms: _289  and  _290
REMARK  117  A    between atoms: _290  and  _291
REMARK  118  A    between atoms: _293  and  _295
REMARK  119  A    between atoms: _295  and  _296
REMARK  120  A    between atoms: _295  and  _298
REMARK  121  A    between atoms: _298  and  _299
REMARK  122  A    between atoms: _299  and  _300
REMARK  123  A    between atoms: _302  and  _304
REMARK  124  A    between atoms: _304  and  _305
REMARK  125  A    between atoms: _304  and  _307
REMARK  126  A    between atoms: _310  and  _312
REMARK  127  A    between atoms: _312  and  _313
REMARK  128  A    between atoms: _312  and  _315
REMARK  129  A    between atoms: _315  and  _316
REMARK  130  A    between atoms: _316  and  _317
REMARK  131  A    between atoms: _317  and  _318
REMARK  132  A    between atoms: _327  and  _329
REMARK  133  A    between atoms: _329  and  _330
REMARK  134  A    between atoms: _329  and  _332
REMARK  135  A    between atoms: _332  and  _333
REMARK  136  A    between atoms: _333  and  _334
REMARK  137  A    between atoms: _336  and  _338
REMARK  138  A    between atoms: _338  and  _339
REMARK  139  A    between atoms: _338  and  _341
REMARK  140  A    between atoms: _341  and  _342
REMARK  141  A    between atoms: _342  and  _343
REMARK  142  A    between atoms: _343  and  _344
REMARK  143  A    between atoms: _344  and  _345
REMARK  144  A    between atoms: _349  and  _351
REMARK  145  A    between atoms: _351  and  _352
REMARK  146  A    between atoms: _354  and  _356
REMARK  147  A    between atoms: _356  and  _357
REMARK  148  A    between atoms: _356  and  _359
REMARK  149  A    between atoms: _359  and  _360
REMARK  150  A    between atoms: _360  and  _361
REMARK  151  A    between atoms: _361  and  MG_407
REMARK  152  A    between atoms: _363  and  _365
REMARK  153  A    between atoms: _365  and  _366
REMARK  154  A    between atoms: _365  and  _368
REMARK  155  A    between atoms: _368  and  _369
REMARK  156  A    between atoms: _372  and  _374
REMARK  157  A    between atoms: _374  and  _375
REMARK  158  A    between atoms: _374  and  _377
REMARK  159  A    between atoms: _377  and  _378
REMARK  160  A    between atoms: _380  and  _382
REMARK  161  A    between atoms: _382  and  _383
REMARK  162  A    between atoms: _382  and  _385
REMARK  163  A    between atoms: _385  and  _386
REMARK  164  A    between atoms: _389  and  _391
REMARK  165  A    between atoms: _391  and  _392
REMARK  166  A    between atoms: _391  and  _394
REMARK  167  A    between atoms: _394  and  _395
REMARK  168  A    between atoms: _395  and  _396
REMARK  169  A    between atoms: _399  and  _401
REMARK  170  A    between atoms: _401  and  _402
REMARK  171  A    between atoms: _401  and  _404
REMARK  172  A    between atoms: _404  and  _405
REMARK                            x       y       z     vdW  Elec       q    Type
REMARK                         _______ _______ _______ _____ _____    ______ ____
ROOT
ATOM      1  NE  ARG A   1      81.537  -2.340  10.912  0.00  0.00    -0.265 N 
ATOM      2  HE  ARG A   1      80.738  -2.409  11.574  0.00  0.00    +0.259 HD
ATOM      3  CZ  ARG A   1      82.162  -3.466  10.577  0.00  0.00    +0.342 C 
ATOM      4  NH2 ARG A   1      81.751  -4.627  11.083  0.00  0.00    -0.292 N 
ATOM      5 HH21 ARG A   1      80.944  -4.652  11.738  0.00  0.00    +0.255 HD
ATOM      6 HH22 ARG A   1      82.237  -5.509  10.823  0.00  0.00    +0.255 HD
ATOM      7  NH1 ARG A   1      83.188  -3.440   9.736  0.00  0.00    -0.292 N 
ATOM      8 HH11 ARG A   1      83.672  -4.324   9.479  0.00  0.00    +0.255 HD
ATOM      9 HH12 ARG A   1      83.508  -2.536   9.334  0.00  0.00    +0.255 HD
ENDROOT
BRANCH   1  10
ATOM     10  CD  ARG A   1      81.893  -1.017  10.416  0.00  0.00    +0.174 C 
BRANCH  10  11
ATOM     11  CG  ARG A   1      80.656  -0.228  10.011  0.00  0.00    +0.045 C 
BRANCH  11  12
ATOM     12  CB  ARG A   1      81.025   1.159   9.496  0.00  0.00    +0.029 C 
BRANCH  12  13
ATOM     13  CA  ARG A   1      79.857   1.932   8.869  0.00  0.00    +0.133 C 
BRANCH  13  14
ATOM     14  N   ARG A   1      79.396   1.253   7.655  0.00  0.00    -0.239 NA
ATOM     15  H   ARG A   1      79.910   0.418   7.308  0.00  0.00    +0.142 HD
ENDBRANCH  13  14
BRANCH  13  16
ATOM     16  C   ARG A   1      80.286   3.362   8.493  0.00  0.00    +0.224 C 
ATOM     17  O   ARG A   1      80.735   3.601   7.374  0.00  0.00    -0.287 OA
ENDBRANCH  13  16
ENDBRANCH  12  13
ENDBRANCH  11  12
ENDBRANCH  10  11
ENDBRANCH   1  10
TORSDOF 6
REMARK  Name = ../refined-set-2016/1rql/1rql_pocket.pdb
REMARK  172 active torsions:
REMARK  status: ('A' for Active; 'I' for Inactive)
REMARK    1  A    between atoms: _1  and  _3
REMARK    2  A    between atoms: _3  and  _4
REMARK    3  A    between atoms: _3  and  _6
REMARK    4  A    between atoms: _6  and  _7
REMARK    5  A    between atoms: _13  and  _15
REMARK    6  A    between atoms: _15  and  _16
REMARK    7  A    between atoms: _15  and  _18
REMARK    8  A    between atoms: _18  and  _19
REMARK    9  A    between atoms: _22  and  _24
REMARK   10  A    between atoms: _24  and  _25
REMARK   11  A    between atoms: _24  and  _27
REMARK   12  A    between atoms: _27  and  _28
REMARK   13  A    between atoms: _38  and  _40
REMARK   14  A    between atoms: _40  and  _41
REMARK   15  A    between atoms: _41  and  _42
REMARK   16  A    between atoms: _41  and  _44
REMARK   17  A    between atoms: _42  and  MG_407
REMARK   18  A    between atoms: _44  and  _46
REMARK   19  A    between atoms: _46  and  _47
REMARK   20  A    between atoms: _49  and  _51
REMARK   21  A    between atoms: _51  and  _52
REMARK   22  A    between atoms: _51  and  _54
REMARK   23  A    between atoms: _54  and  _55
REMARK   24  A    between atoms: _58  and  _60
REMARK   25  A    between atoms: _60  and  _61
REMARK   26  A    between atoms: _60  and  _63
REMARK   27  A    between atoms: _63  and  _64
REMARK   28  A    between atoms: _67  and  _69
REMARK   29  A    between atoms: _69  and  _70
REMARK   30  A    between atoms: _69  and  _72
REMARK   31  A    between atoms: _75  and  _77
REMARK   32  A    between atoms: _77  and  _78
REMARK   33  A    between atoms: _77  and  _80
REMARK   34  A    between atoms: _80  and  _81
REMARK   35  A    between atoms: _84  and  _86
REMARK   36  A    between atoms: _86  and  _87
REMARK   37  A    between atoms: _86  and  _89
REMARK   38  A    between atoms: _91  and  _93
REMARK   39  A    between atoms: _93  and  _94
REMARK   40  A    between atoms: _93  and  _96
REMARK   41  A    between atoms: _96  and  _97
REMARK   42  A    between atoms: _103  and  _105
REMARK   43  A    between atoms: _105  and  _106
REMARK   44  A    between atoms: _110  and  _111
REMARK   45  A    between atoms: _116  and  _118
REMARK   46  A    between atoms: _118  and  _119
REMARK   47  A    between atoms: _118  and  _121
REMARK   48  A    between atoms: _121  and  _122
REMARK   49  A    between atoms: _125  and  _127
REMARK   50  A    between atoms: _127  and  _128
REMARK   51  A    between atoms: _127  and  _130
REMARK   52  A    between atoms: _130  and  _131
REMARK   53  A    between atoms: _137  and  _139
REMARK   54  A    between atoms: _139  and  _140
REMARK   55  A    between atoms: _139  and  _142
REMARK   56  A    between atoms: _142  and  _143
REMARK   57  A    between atoms: _143  and  _144
REMARK   58  A    between atoms: _144  and  _145
REMARK   59  A    between atoms: _155  and  _156
REMARK   60  A    between atoms: _161  and  _163
REMARK   61  A    between atoms: _163  and  _164
REMARK   62  A    between atoms: _163  and  _166
REMARK   63  A    between atoms: _166  and  _167
REMARK   64  A    between atoms: _167  and  _168
REMARK   65  A    between atoms: _170  and  _172
REMARK   66  A    between atoms: _172  and  _173
REMARK   67  A    between atoms: _175  and  _177
REMARK   68  A    between atoms: _177  and  _178
REMARK   69  A    between atoms: _177  and  _180
REMARK   70  A    between atoms: _180  and  _181
REMARK   71  A    between atoms: _184  and  _186
REMARK   72  A    between atoms: _186  and  _187
REMARK   73  A    between atoms: _186  and  _189
REMARK   74  A    between atoms: _189  and  _190
REMARK   75  A    between atoms: _193  and  _195
REMARK   76  A    between atoms: _195  and  _196
REMARK   77  A    between atoms: _195  and  _198
REMARK   78  A    between atoms: _198  and  _199
REMARK   79  A    between atoms: _199  and  _200
REMARK   80  A    between atoms: _200  and  _201
REMARK   81  A    between atoms: _201  and  _202
REMARK   82  A    between atoms: _206  and  _208
REMARK   83  A    between atoms: _208  and  _209
REMARK   84  A    between atoms: _208  and  _211
REMARK   85  A    between atoms: _211  and  _212
REMARK   86  A    between atoms: _217  and  _219
REMARK   87  A    between atoms: _219  and  _220
REMARK   88  A    between atoms: _219  and  _222
REMARK   89  A    between atoms: _222  and  _223
REMARK   90  A    between atoms: _229  and  _231
REMARK   91  A    between atoms: _231  and  _232
REMARK   92  A    between atoms: _231  and  _234
REMARK   93  A    between atoms: _234  and  _235
REMARK   94  A    between atoms: _238  and  _240
REMARK   95  A    between atoms: _240  and  _241
REMARK   96  A    between atoms: _240  and  _243
REMARK   97  A    between atoms: _243  and  _244
REMARK   98  A    between atoms: _247  and  _249
REMARK   99  A    between atoms: _249  and  _250
REMARK  100  A    between atoms: _249  and  _252
REMARK  101  A    between atoms: _252  and  _253
REMARK  102  A    between atoms: _256  and  _258
REMARK  103  A    between atoms: _258  and  _259
REMARK  104  A    between atoms: _261  and  _263
REMARK  105  A    between atoms: _263  and  _264
REMARK  106  A    between atoms: _263  and  _266
REMARK  107  A    between atoms: _266  and  _267
REMARK  108  A    between atoms: _272  and  _273
REMARK  109  A    between atoms: _275  and  _277
REMARK  110  A    between atoms: _277  and  _278
REMARK  111  A    between atoms: _277  and  _280
REMARK  112  A    between atoms: _280  and  _281
REMARK  113  A    between atoms: _284  and  _286
REMARK  114  A    between atoms: _286  and  _287
REMARK  115  A    between atoms: _286  and  _289
REMARK  116  A    between atoms: _289  and  _290
REMARK  117  A    between atoms: _290  and  _291
REMARK  118  A    between atoms: _293  and  _295
REMARK  119  A    between atoms: _295  and  _296
REMARK  120  A    between atoms: _295  and  _298
REMARK  121  A    between atoms: _298  and  _299
REMARK  122  A    between atoms: _299  and  _300
REMARK  123  A    between atoms: _302  and  _304
REMARK  124  A    between atoms: _304  and  _305
REMARK  125  A    between atoms: _304  and  _307
REMARK  126  A    between atoms: _310  and  _312
REMARK  127  A    between atoms: _312  and  _313
REMARK  128  A    between atoms: _312  and  _315
REMARK  129  A    between atoms: _315  and  _316
REMARK  130  A    between atoms: _316  and  _317
REMARK  131  A    between atoms: _317  and  _318
REMARK  132  A    between atoms: _327  and  _329
REMARK  133  A    between atoms: _329  and  _330
REMARK  134  A    between atoms: _329  and  _332
REMARK  135  A    between atoms: _332  and  _333
REMARK  136  A    between atoms: _333  and  _334
REMARK  137  A    between atoms: _336  and  _338
REMARK  138  A    between atoms: _338  and  _339
REMARK  139  A    between atoms: _338  and  _341
REMARK  140  A    between atoms: _341  and  _342
REMARK  141  A    between atoms: _342  and  _343
REMARK  142  A    between atoms: _343  and  _344
REMARK  143  A    between atoms: _344  and  _345
REMARK  144  A    between atoms: _349  and  _351
REMARK  145  A    between atoms: _351  and  _352
REMARK  146  A    between atoms: _354  and  _356
REMARK  147  A    between atoms: _356  and  _357
REMARK  148  A    between atoms: _356  and  _359
REMARK  149  A    between atoms: _359  and  _360
REMARK  150  A    between atoms: _360  and  _361
REMARK  151  A    between atoms: _361  and  MG_407
REMARK  152  A    between atoms: _363  and  _365
REMARK  153  A    between atoms: _365  and  _366
REMARK  154  A    between atoms: _365  and  _368
REMARK  155  A    between atoms: _368  and  _369
REMARK  156  A    between atoms: _372  and  _374
REMARK  157  A    between atoms: _374  and  _375
REMARK  158  A    between atoms: _374  and  _377
REMARK  159  A    between atoms: _377  and  _378
REMARK  160  A    between atoms: _380  and  _382
REMARK  161  A    between atoms: _382  and  _383
REMARK  162  A    between atoms: _382  and  _385
REMARK  163  A    between atoms: _385  and  _386
REMARK  164  A    between atoms: _389  and  _391
REMARK  165  A    between atoms: _391  and  _392
REMARK  166  A    between atoms: _391  and  _394
REMARK  167  A    between atoms: _394  and  _395
REMARK  168  A    between atoms: _395  and  _396
REMARK  169  A    between atoms: _399  and  _401
REMARK  170  A    between atoms: _401  and  _402
REMARK  171  A    between atoms: _401  and  _404
REMARK  172  A    between atoms: _404  and  _405
REMARK                            x       y       z     vdW  Elec       q    Type
REMARK                         _______ _______ _______ _____ _____    ______ ____
ROOT
ATOM      1  CA  MET A   1      73.449  -2.937   9.597  0.00  0.00    +0.134 C 
ENDROOT
BRANCH   1   2
ATOM      2  N   MET A   1      73.173  -1.504   9.530  0.00  0.00    -0.239 NA
ATOM      3  H   MET A   1      73.931  -0.861   9.224  0.00  0.00    +0.142 HD
ENDBRANCH   1   2
BRANCH   1   4
ATOM      4  C   MET A   1      73.122  -3.527  10.971  0.00  0.00    +0.224 C 
ATOM      5  O   MET A   1      72.671  -4.666  11.062  0.00  0.00    -0.287 OA
ENDBRANCH   1   4
BRANCH   1   6
ATOM      6  CB  MET A   1      74.915  -3.218   9.264  0.00  0.00    +0.037 C 
BRANCH   6   7
ATOM      7  CG  MET A   1      75.292  -2.913   7.827  0.00  0.00    +0.059 C 
BRANCH   7   8
ATOM      8  SD  MET A   1      76.975  -3.445   7.402  0.00  0.00    -0.139 S 
ATOM      9  CE  MET A   1      77.939  -2.133   8.153  0.00  0.00    +0.069 C 
ENDBRANCH   7   8
ENDBRANCH   6   7
ENDBRANCH   1   6
TORSDOF 5
REMARK  Name = ../refined-set-2016/1rql/1rql_pocket.pdb
REMARK  172 active torsions:
REMARK  status: ('A' for Active; 'I' for Inactive)
REMARK    1  A    between atoms: _1  and  _3
REMARK    2  A    between atoms: _3  and  _4
REMARK    3  A    between atoms: _3  and  _6
REMARK    4  A    between atoms: _6  and  _7
REMARK    5  A    between atoms: _13  and  _15
REMARK    6  A    between atoms: _15  and  _16
REMARK    7  A    between atoms: _15  and  _18
REMARK    8  A    between atoms: _18  and  _19
REMARK    9  A    between atoms: _22  and  _24
REMARK   10  A    between atoms: _24  and  _25
REMARK   11  A    between atoms: _24  and  _27
REMARK   12  A    between atoms: _27  and  _28
REMARK   13  A    between atoms: _38  and  _40
REMARK   14  A    between atoms: _40  and  _41
REMARK   15  A    between atoms: _41  and  _42
REMARK   16  A    between atoms: _41  and  _44
REMARK   17  A    between atoms: _42  and  MG_407
REMARK   18  A    between atoms: _44  and  _46
REMARK   19  A    between atoms: _46  and  _47
REMARK   20  A    between atoms: _49  and  _51
REMARK   21  A    between atoms: _51  and  _52
REMARK   22  A    between atoms: _51  and  _54
REMARK   23  A    between atoms: _54  and  _55
REMARK   24  A    between atoms: _58  and  _60
REMARK   25  A    between atoms: _60  and  _61
REMARK   26  A    between atoms: _60  and  _63
REMARK   27  A    between atoms: _63  and  _64
REMARK   28  A    between atoms: _67  and  _69
REMARK   29  A    between atoms: _69  and  _70
REMARK   30  A    between atoms: _69  and  _72
REMARK   31  A    between atoms: _75  and  _77
REMARK   32  A    between atoms: _77  and  _78
REMARK   33  A    between atoms: _77  and  _80
REMARK   34  A    between atoms: _80  and  _81
REMARK   35  A    between atoms: _84  and  _86
REMARK   36  A    between atoms: _86  and  _87
REMARK   37  A    between atoms: _86  and  _89
REMARK   38  A    between atoms: _91  and  _93
REMARK   39  A    between atoms: _93  and  _94
REMARK   40  A    between atoms: _93  and  _96
REMARK   41  A    between atoms: _96  and  _97
REMARK   42  A    between atoms: _103  and  _105
REMARK   43  A    between atoms: _105  and  _106
REMARK   44  A    between atoms: _110  and  _111
REMARK   45  A    between atoms: _116  and  _118
REMARK   46  A    between atoms: _118  and  _119
REMARK   47  A    between atoms: _118  and  _121
REMARK   48  A    between atoms: _121  and  _122
REMARK   49  A    between atoms: _125  and  _127
REMARK   50  A    between atoms: _127  and  _128
REMARK   51  A    between atoms: _127  and  _130
REMARK   52  A    between atoms: _130  and  _131
REMARK   53  A    between atoms: _137  and  _139
REMARK   54  A    between atoms: _139  and  _140
REMARK   55  A    between atoms: _139  and  _142
REMARK   56  A    between atoms: _142  and  _143
REMARK   57  A    between atoms: _143  and  _144
REMARK   58  A    between atoms: _144  and  _145
REMARK   59  A    between atoms: _155  and  _156
REMARK   60  A    between atoms: _161  and  _163
REMARK   61  A    between atoms: _163  and  _164
REMARK   62  A    between atoms: _163  and  _166
REMARK   63  A    between atoms: _166  and  _167
REMARK   64  A    between atoms: _167  and  _168
REMARK   65  A    between atoms: _170  and  _172
REMARK   66  A    between atoms: _172  and  _173
REMARK   67  A    between atoms: _175  and  _177
REMARK   68  A    between atoms: _177  and  _178
REMARK   69  A    between atoms: _177  and  _180
REMARK   70  A    between atoms: _180  and  _181
REMARK   71  A    between atoms: _184  and  _186
REMARK   72  A    between atoms: _186  and  _187
REMARK   73  A    between atoms: _186  and  _189
REMARK   74  A    between atoms: _189  and  _190
REMARK   75  A    between atoms: _193  and  _195
REMARK   76  A    between atoms: _195  and  _196
REMARK   77  A    between atoms: _195  and  _198
REMARK   78  A    between atoms: _198  and  _199
REMARK   79  A    between atoms: _199  and  _200
REMARK   80  A    between atoms: _200  and  _201
REMARK   81  A    between atoms: _201  and  _202
REMARK   82  A    between atoms: _206  and  _208
REMARK   83  A    between atoms: _208  and  _209
REMARK   84  A    between atoms: _208  and  _211
REMARK   85  A    between atoms: _211  and  _212
REMARK   86  A    between atoms: _217  and  _219
REMARK   87  A    between atoms: _219  and  _220
REMARK   88  A    between atoms: _219  and  _222
REMARK   89  A    between atoms: _222  and  _223
REMARK   90  A    between atoms: _229  and  _231
REMARK   91  A    between atoms: _231  and  _232
REMARK   92  A    between atoms: _231  and  _234
REMARK   93  A    between atoms: _234  and  _235
REMARK   94  A    between atoms: _238  and  _240
REMARK   95  A    between atoms: _240  and  _241
REMARK   96  A    between atoms: _240  and  _243
REMARK   97  A    between atoms: _243  and  _244
REMARK   98  A    between atoms: _247  and  _249
REMARK   99  A    between atoms: _249  and  _250
REMARK  100  A    between atoms: _249  and  _252
REMARK  101  A    between atoms: _252  and  _253
REMARK  102  A    between atoms: _256  and  _258
REMARK  103  A    between atoms: _258  and  _259
REMARK  104  A    between atoms: _261  and  _263
REMARK  105  A    between atoms: _263  and  _264
REMARK  106  A    between atoms: _263  and  _266
REMARK  107  A    between atoms: _266  and  _267
REMARK  108  A    between atoms: _272  and  _273
REMARK  109  A    between atoms: _275  and  _277
REMARK  110  A    between atoms: _277  and  _278
REMARK  111  A    between atoms: _277  and  _280
REMARK  112  A    between atoms: _280  and  _281
REMARK  113  A    between atoms: _284  and  _286
REMARK  114  A    between atoms: _286  and  _287
REMARK  115  A    between atoms: _286  and  _289
REMARK  116  A    between atoms: _289  and  _290
REMARK  117  A    between atoms: _290  and  _291
REMARK  118  A    between atoms: _293  and  _295
REMARK  119  A    between atoms: _295  and  _296
REMARK  120  A    between atoms: _295  and  _298
REMARK  121  A    between atoms: _298  and  _299
REMARK  122  A    between atoms: _299  and  _300
REMARK  123  A    between atoms: _302  and  _304
REMARK  124  A    between atoms: _304  and  _305
REMARK  125  A    between atoms: _304  and  _307
REMARK  126  A    between atoms: _310  and  _312
REMARK  127  A    between atoms: _312  and  _313
REMARK  128  A    between atoms: _312  and  _315
REMARK  129  A    between atoms: _315  and  _316
REMARK  130  A    between atoms: _316  and  _317
REMARK  131  A    between atoms: _317  and  _318
REMARK  132  A    between atoms: _327  and  _329
REMARK  133  A    between atoms: _329  and  _330
REMARK  134  A    between atoms: _329  and  _332
REMARK  135  A    between atoms: _332  and  _333
REMARK  136  A    between atoms: _333  and  _334
REMARK  137  A    between atoms: _336  and  _338
REMARK  138  A    between atoms: _338  and  _339
REMARK  139  A    between atoms: _338  and  _341
REMARK  140  A    between atoms: _341  and  _342
REMARK  141  A    between atoms: _342  and  _343
REMARK  142  A    between atoms: _343  and  _344
REMARK  143  A    between atoms: _344  and  _345
REMARK  144  A    between atoms: _349  and  _351
REMARK  145  A    between atoms: _351  and  _352
REMARK  146  A    between atoms: _354  and  _356
REMARK  147  A    between atoms: _356  and  _357
REMARK  148  A    between atoms: _356  and  _359
REMARK  149  A    between atoms: _359  and  _360
REMARK  150  A    between atoms: _360  and  _361
REMARK  151  A    between atoms: _361  and  MG_407
REMARK  152  A    between atoms: _363  and  _365
REMARK  153  A    between atoms: _365  and  _366
REMARK  154  A    between atoms: _365  and  _368
REMARK  155  A    between atoms: _368  and  _369
REMARK  156  A    between atoms: _372  and  _374
REMARK  157  A    between atoms: _374  and  _375
REMARK  158  A    between atoms: _374  and  _377
REMARK  159  A    between atoms: _377  and  _378
REMARK  160  A    between atoms: _380  and  _382
REMARK  161  A    between atoms: _382  and  _383
REMARK  162  A    between atoms: _382  and  _385
REMARK  163  A    between atoms: _385  and  _386
REMARK  164  A    between atoms: _389  and  _391
REMARK  165  A    between atoms: _391  and  _392
REMARK  166  A    between atoms: _391  and  _394
REMARK  167  A    between atoms: _394  and  _395
REMARK  168  A    between atoms: _395  and  _396
REMARK  169  A    between atoms: _399  and  _401
REMARK  170  A    between atoms: _401  and  _402
REMARK  171  A    between atoms: _401  and  _404
REMARK  172  A    between atoms: _404  and  _405
REMARK                            x       y       z     vdW  Elec       q    Type
REMARK                         _______ _______ _______ _____ _____    ______ ____
ROOT
ATOM      1  CG  LYS A   1      78.688  -3.517  17.405  0.00  0.00    -0.000 C 
ENDROOT
BRANCH   1   2
ATOM      2  CB  LYS A   1      78.700  -3.415  18.907  0.00  0.00    +0.025 C 
BRANCH   2   3
ATOM      3  CA  LYS A   1      78.925  -4.746  19.619  0.00  0.00    +0.133 C 
BRANCH   3   4
ATOM      4  N   LYS A   1      78.206  -4.747  20.876  0.00  0.00    -0.239 NA
ATOM      5  H   LYS A   1      78.373  -3.977  21.555  0.00  0.00    +0.142 HD
ENDBRANCH   3   4
BRANCH   3   6
ATOM      6  C   LYS A   1      80.411  -4.940  19.909  0.00  0.00    +0.224 C 
ATOM      7  O   LYS A   1      80.967  -4.289  20.788  0.00  0.00    -0.287 OA
ENDBRANCH   3   6
ENDBRANCH   2   3
ENDBRANCH   1   2
BRANCH   1   8
ATOM      8  CD  LYS A   1      80.070  -3.677  16.825  0.00  0.00    -0.024 C 
BRANCH   8   9
ATOM      9  CE  LYS A   1      79.981  -3.818  15.325  0.00  0.00    -0.086 C 
BRANCH   9  10
ATOM     10  NZ  LYS A   1      81.296  -3.681  14.676  0.00  0.00    +0.380 N 
ATOM     11  HZ1 LYS A   1      81.936  -4.418  15.034  0.00  0.00    -0.089 HD
ATOM     12  HZ2 LYS A   1      81.691  -2.743  14.891  0.00  0.00    -0.089 HD
ATOM     13  HZ3 LYS A   1      81.186  -3.785  13.647  0.00  0.00    -0.089 HD
ENDBRANCH   9  10
ENDBRANCH   8   9
ENDBRANCH   1   8
TORSDOF 7
REMARK  Name = ../refined-set-2016/1rql/1rql_pocket.pdb
REMARK  172 active torsions:
REMARK  status: ('A' for Active; 'I' for Inactive)
REMARK    1  A    between atoms: _1  and  _3
REMARK    2  A    between atoms: _3  and  _4
REMARK    3  A    between atoms: _3  and  _6
REMARK    4  A    between atoms: _6  and  _7
REMARK    5  A    between atoms: _13  and  _15
REMARK    6  A    between atoms: _15  and  _16
REMARK    7  A    between atoms: _15  and  _18
REMARK    8  A    between atoms: _18  and  _19
REMARK    9  A    between atoms: _22  and  _24
REMARK   10  A    between atoms: _24  and  _25
REMARK   11  A    between atoms: _24  and  _27
REMARK   12  A    between atoms: _27  and  _28
REMARK   13  A    between atoms: _38  and  _40
REMARK   14  A    between atoms: _40  and  _41
REMARK   15  A    between atoms: _41  and  _42
REMARK   16  A    between atoms: _41  and  _44
REMARK   17  A    between atoms: _42  and  MG_407
REMARK   18  A    between atoms: _44  and  _46
REMARK   19  A    between atoms: _46  and  _47
REMARK   20  A    between atoms: _49  and  _51
REMARK   21  A    between atoms: _51  and  _52
REMARK   22  A    between atoms: _51  and  _54
REMARK   23  A    between atoms: _54  and  _55
REMARK   24  A    between atoms: _58  and  _60
REMARK   25  A    between atoms: _60  and  _61
REMARK   26  A    between atoms: _60  and  _63
REMARK   27  A    between atoms: _63  and  _64
REMARK   28  A    between atoms: _67  and  _69
REMARK   29  A    between atoms: _69  and  _70
REMARK   30  A    between atoms: _69  and  _72
REMARK   31  A    between atoms: _75  and  _77
REMARK   32  A    between atoms: _77  and  _78
REMARK   33  A    between atoms: _77  and  _80
REMARK   34  A    between atoms: _80  and  _81
REMARK   35  A    between atoms: _84  and  _86
REMARK   36  A    between atoms: _86  and  _87
REMARK   37  A    between atoms: _86  and  _89
REMARK   38  A    between atoms: _91  and  _93
REMARK   39  A    between atoms: _93  and  _94
REMARK   40  A    between atoms: _93  and  _96
REMARK   41  A    between atoms: _96  and  _97
REMARK   42  A    between atoms: _103  and  _105
REMARK   43  A    between atoms: _105  and  _106
REMARK   44  A    between atoms: _110  and  _111
REMARK   45  A    between atoms: _116  and  _118
REMARK   46  A    between atoms: _118  and  _119
REMARK   47  A    between atoms: _118  and  _121
REMARK   48  A    between atoms: _121  and  _122
REMARK   49  A    between atoms: _125  and  _127
REMARK   50  A    between atoms: _127  and  _128
REMARK   51  A    between atoms: _127  and  _130
REMARK   52  A    between atoms: _130  and  _131
REMARK   53  A    between atoms: _137  and  _139
REMARK   54  A    between atoms: _139  and  _140
REMARK   55  A    between atoms: _139  and  _142
REMARK   56  A    between atoms: _142  and  _143
REMARK   57  A    between atoms: _143  and  _144
REMARK   58  A    between atoms: _144  and  _145
REMARK   59  A    between atoms: _155  and  _156
REMARK   60  A    between atoms: _161  and  _163
REMARK   61  A    between atoms: _163  and  _164
REMARK   62  A    between atoms: _163  and  _166
REMARK   63  A    between atoms: _166  and  _167
REMARK   64  A    between atoms: _167  and  _168
REMARK   65  A    between atoms: _170  and  _172
REMARK   66  A    between atoms: _172  and  _173
REMARK   67  A    between atoms: _175  and  _177
REMARK   68  A    between atoms: _177  and  _178
REMARK   69  A    between atoms: _177  and  _180
REMARK   70  A    between atoms: _180  and  _181
REMARK   71  A    between atoms: _184  and  _186
REMARK   72  A    between atoms: _186  and  _187
REMARK   73  A    between atoms: _186  and  _189
REMARK   74  A    between atoms: _189  and  _190
REMARK   75  A    between atoms: _193  and  _195
REMARK   76  A    between atoms: _195  and  _196
REMARK   77  A    between atoms: _195  and  _198
REMARK   78  A    between atoms: _198  and  _199
REMARK   79  A    between atoms: _199  and  _200
REMARK   80  A    between atoms: _200  and  _201
REMARK   81  A    between atoms: _201  and  _202
REMARK   82  A    between atoms: _206  and  _208
REMARK   83  A    between atoms: _208  and  _209
REMARK   84  A    between atoms: _208  and  _211
REMARK   85  A    between atoms: _211  and  _212
REMARK   86  A    between atoms: _217  and  _219
REMARK   87  A    between atoms: _219  and  _220
REMARK   88  A    between atoms: _219  and  _222
REMARK   89  A    between atoms: _222  and  _223
REMARK   90  A    between atoms: _229  and  _231
REMARK   91  A    between atoms: _231  and  _232
REMARK   92  A    between atoms: _231  and  _234
REMARK   93  A    between atoms: _234  and  _235
REMARK   94  A    between atoms: _238  and  _240
REMARK   95  A    between atoms: _240  and  _241
REMARK   96  A    between atoms: _240  and  _243
REMARK   97  A    between atoms: _243  and  _244
REMARK   98  A    between atoms: _247  and  _249
REMARK   99  A    between atoms: _249  and  _250
REMARK  100  A    between atoms: _249  and  _252
REMARK  101  A    between atoms: _252  and  _253
REMARK  102  A    between atoms: _256  and  _258
REMARK  103  A    between atoms: _258  and  _259
REMARK  104  A    between atoms: _261  and  _263
REMARK  105  A    between atoms: _263  and  _264
REMARK  106  A    between atoms: _263  and  _266
REMARK  107  A    between atoms: _266  and  _267
REMARK  108  A    between atoms: _272  and  _273
REMARK  109  A    between atoms: _275  and  _277
REMARK  110  A    between atoms: _277  and  _278
REMARK  111  A    between atoms: _277  and  _280
REMARK  112  A    between atoms: _280  and  _281
REMARK  113  A    between atoms: _284  and  _286
REMARK  114  A    between atoms: _286  and  _287
REMARK  115  A    between atoms: _286  and  _289
REMARK  116  A    between atoms: _289  and  _290
REMARK  117  A    between atoms: _290  and  _291
REMARK  118  A    between atoms: _293  and  _295
REMARK  119  A    between atoms: _295  and  _296
REMARK  120  A    between atoms: _295  and  _298
REMARK  121  A    between atoms: _298  and  _299
REMARK  122  A    between atoms: _299  and  _300
REMARK  123  A    between atoms: _302  and  _304
REMARK  124  A    between atoms: _304  and  _305
REMARK  125  A    between atoms: _304  and  _307
REMARK  126  A    between atoms: _310  and  _312
REMARK  127  A    between atoms: _312  and  _313
REMARK  128  A    between atoms: _312  and  _315
REMARK  129  A    between atoms: _315  and  _316
REMARK  130  A    between atoms: _316  and  _317
REMARK  131  A    between atoms: _317  and  _318
REMARK  132  A    between atoms: _327  and  _329
REMARK  133  A    between atoms: _329  and  _330
REMARK  134  A    between atoms: _329  and  _332
REMARK  135  A    between atoms: _332  and  _333
REMARK  136  A    between atoms: _333  and  _334
REMARK  137  A    between atoms: _336  and  _338
REMARK  138  A    between atoms: _338  and  _339
REMARK  139  A    between atoms: _338  and  _341
REMARK  140  A    between atoms: _341  and  _342
REMARK  141  A    between atoms: _342  and  _343
REMARK  142  A    between atoms: _343  and  _344
REMARK  143  A    between atoms: _344  and  _345
REMARK  144  A    between atoms: _349  and  _351
REMARK  145  A    between atoms: _351  and  _352
REMARK  146  A    between atoms: _354  and  _356
REMARK  147  A    between atoms: _356  and  _357
REMARK  148  A    between atoms: _356  and  _359
REMARK  149  A    between atoms: _359  and  _360
REMARK  150  A    between atoms: _360  and  _361
REMARK  151  A    between atoms: _361  and  MG_407
REMARK  152  A    between atoms: _363  and  _365
REMARK  153  A    between atoms: _365  and  _366
REMARK  154  A    between atoms: _365  and  _368
REMARK  155  A    between atoms: _368  and  _369
REMARK  156  A    between atoms: _372  and  _374
REMARK  157  A    between atoms: _374  and  _375
REMARK  158  A    between atoms: _374  and  _377
REMARK  159  A    between atoms: _377  and  _378
REMARK  160  A    between atoms: _380  and  _382
REMARK  161  A    between atoms: _382  and  _383
REMARK  162  A    between atoms: _382  and  _385
REMARK  163  A    between atoms: _385  and  _386
REMARK  164  A    between atoms: _389  and  _391
REMARK  165  A    between atoms: _391  and  _392
REMARK  166  A    between atoms: _391  and  _394
REMARK  167  A    between atoms: _394  and  _395
REMARK  168  A    between atoms: _395  and  _396
REMARK  169  A    between atoms: _399  and  _401
REMARK  170  A    between atoms: _401  and  _402
REMARK  171  A    between atoms: _401  and  _404
REMARK  172  A    between atoms: _404  and  _405
REMARK                            x       y       z     vdW  Elec       q    Type
REMARK                         _______ _______ _______ _____ _____    ______ ____
ROOT
ATOM      1  C   SER A   1      83.743   1.523  13.192  0.00  0.00    +0.241 C 
ATOM      2  N   ASP A   2      84.287   0.444  13.761  0.00  0.00    -0.298 N 
ATOM      3  H   ASP A   2      85.310   0.285  13.663  0.00  0.00    +0.150 HD
ATOM      4  O   SER A   1      82.531   1.757  13.211  0.00  0.00    -0.274 OA
ENDROOT
BRANCH   1   5
ATOM      5  CA  SER A   1      84.701   2.475  12.485  0.00  0.00    +0.174 C 
BRANCH   5   6
ATOM      6  N   SER A   1      86.039   2.416  13.094  0.00  0.00    -0.236 NA
ATOM      7  H   SER A   1      86.838   2.038  12.546  0.00  0.00    +0.142 HD
ENDBRANCH   5   6
BRANCH   5   8
ATOM      8  CB  SER A   1      84.754   2.144  10.990  0.00  0.00    +0.163 C 
BRANCH   8   9
ATOM      9  OG  SER A   1      84.822   0.747  10.758  0.00  0.00    -0.380 OA
ATOM     10  H   SER A   1      85.637   0.382  11.185  0.00  0.00    +0.211 HD
ENDBRANCH   8   9
ENDBRANCH   5   8
ENDBRANCH   1   5
BRANCH   2  11
ATOM     11  CA  ASP A   2      83.486  -0.525  14.521  0.00  0.00    +0.148 C 
BRANCH  11  12
ATOM     12  C   ASP A   2      82.996   0.139  15.813  0.00  0.00    +0.227 C 
ATOM     13  O   ASP A   2      81.899  -0.152  16.297  0.00  0.00    -0.286 OA
ENDBRANCH  11  12
BRANCH  11  14
ATOM     14  CB  ASP A   2      84.319  -1.766  14.910  0.00  0.00    +0.142 C 
BRANCH  14  15
ATOM     15  CG  ASP A   2      84.433  -2.780  13.793  0.00  0.00    +0.367 C 
ATOM     16  OD2 ASP A   2      83.426  -3.422  13.461  0.00  0.00    -0.246 OA
ATOM     17  OD1 ASP A   2      85.534  -2.938  13.244  0.00  0.00    -0.246 OA
ENDBRANCH  14  15
ENDBRANCH  11  14
ENDBRANCH   2  11
TORSDOF 8
REMARK  Name = ../refined-set-2016/1rql/1rql_pocket.pdb
REMARK  172 active torsions:
REMARK  status: ('A' for Active; 'I' for Inactive)
REMARK    1  A    between atoms: _1  and  _3
REMARK    2  A    between atoms: _3  and  _4
REMARK    3  A    between atoms: _3  and  _6
REMARK    4  A    between atoms: _6  and  _7
REMARK    5  A    between atoms: _13  and  _15
REMARK    6  A    between atoms: _15  and  _16
REMARK    7  A    between atoms: _15  and  _18
REMARK    8  A    between atoms: _18  and  _19
REMARK    9  A    between atoms: _22  and  _24
REMARK   10  A    between atoms: _24  and  _25
REMARK   11  A    between atoms: _24  and  _27
REMARK   12  A    between atoms: _27  and  _28
REMARK   13  A    between atoms: _38  and  _40
REMARK   14  A    between atoms: _40  and  _41
REMARK   15  A    between atoms: _41  and  _42
REMARK   16  A    between atoms: _41  and  _44
REMARK   17  A    between atoms: _42  and  MG_407
REMARK   18  A    between atoms: _44  and  _46
REMARK   19  A    between atoms: _46  and  _47
REMARK   20  A    between atoms: _49  and  _51
REMARK   21  A    between atoms: _51  and  _52
REMARK   22  A    between atoms: _51  and  _54
REMARK   23  A    between atoms: _54  and  _55
REMARK   24  A    between atoms: _58  and  _60
REMARK   25  A    between atoms: _60  and  _61
REMARK   26  A    between atoms: _60  and  _63
REMARK   27  A    between atoms: _63  and  _64
REMARK   28  A    between atoms: _67  and  _69
REMARK   29  A    between atoms: _69  and  _70
REMARK   30  A    between atoms: _69  and  _72
REMARK   31  A    between atoms: _75  and  _77
REMARK   32  A    between atoms: _77  and  _78
REMARK   33  A    between atoms: _77  and  _80
REMARK   34  A    between atoms: _80  and  _81
REMARK   35  A    between atoms: _84  and  _86
REMARK   36  A    between atoms: _86  and  _87
REMARK   37  A    between atoms: _86  and  _89
REMARK   38  A    between atoms: _91  and  _93
REMARK   39  A    between atoms: _93  and  _94
REMARK   40  A    between atoms: _93  and  _96
REMARK   41  A    between atoms: _96  and  _97
REMARK   42  A    between atoms: _103  and  _105
REMARK   43  A    between atoms: _105  and  _106
REMARK   44  A    between atoms: _110  and  _111
REMARK   45  A    between atoms: _116  and  _118
REMARK   46  A    between atoms: _118  and  _119
REMARK   47  A    between atoms: _118  and  _121
REMARK   48  A    between atoms: _121  and  _122
REMARK   49  A    between atoms: _125  and  _127
REMARK   50  A    between atoms: _127  and  _128
REMARK   51  A    between atoms: _127  and  _130
REMARK   52  A    between atoms: _130  and  _131
REMARK   53  A    between atoms: _137  and  _139
REMARK   54  A    between atoms: _139  and  _140
REMARK   55  A    between atoms: _139  and  _142
REMARK   56  A    between atoms: _142  and  _143
REMARK   57  A    between atoms: _143  and  _144
REMARK   58  A    between atoms: _144  and  _145
REMARK   59  A    between atoms: _155  and  _156
REMARK   60  A    between atoms: _161  and  _163
REMARK   61  A    between atoms: _163  and  _164
REMARK   62  A    between atoms: _163  and  _166
REMARK   63  A    between atoms: _166  and  _167
REMARK   64  A    between atoms: _167  and  _168
REMARK   65  A    between atoms: _170  and  _172
REMARK   66  A    between atoms: _172  and  _173
REMARK   67  A    between atoms: _175  and  _177
REMARK   68  A    between atoms: _177  and  _178
REMARK   69  A    between atoms: _177  and  _180
REMARK   70  A    between atoms: _180  and  _181
REMARK   71  A    between atoms: _184  and  _186
REMARK   72  A    between atoms: _186  and  _187
REMARK   73  A    between atoms: _186  and  _189
REMARK   74  A    between atoms: _189  and  _190
REMARK   75  A    between atoms: _193  and  _195
REMARK   76  A    between atoms: _195  and  _196
REMARK   77  A    between atoms: _195  and  _198
REMARK   78  A    between atoms: _198  and  _199
REMARK   79  A    between atoms: _199  and  _200
REMARK   80  A    between atoms: _200  and  _201
REMARK   81  A    between atoms: _201  and  _202
REMARK   82  A    between atoms: _206  and  _208
REMARK   83  A    between atoms: _208  and  _209
REMARK   84  A    between atoms: _208  and  _211
REMARK   85  A    between atoms: _211  and  _212
REMARK   86  A    between atoms: _217  and  _219
REMARK   87  A    between atoms: _219  and  _220
REMARK   88  A    between atoms: _219  and  _222
REMARK   89  A    between atoms: _222  and  _223
REMARK   90  A    between atoms: _229  and  _231
REMARK   91  A    between atoms: _231  and  _232
REMARK   92  A    between atoms: _231  and  _234
REMARK   93  A    between atoms: _234  and  _235
REMARK   94  A    between atoms: _238  and  _240
REMARK   95  A    between atoms: _240  and  _241
REMARK   96  A    between atoms: _240  and  _243
REMARK   97  A    between atoms: _243  and  _244
REMARK   98  A    between atoms: _247  and  _249
REMARK   99  A    between atoms: _249  and  _250
REMARK  100  A    between atoms: _249  and  _252
REMARK  101  A    between atoms: _252  and  _253
REMARK  102  A    between atoms: _256  and  _258
REMARK  103  A    between atoms: _258  and  _259
REMARK  104  A    between atoms: _261  and  _263
REMARK  105  A    between atoms: _263  and  _264
REMARK  106  A    between atoms: _263  and  _266
REMARK  107  A    between atoms: _266  and  _267
REMARK  108  A    between atoms: _272  and  _273
REMARK  109  A    between atoms: _275  and  _277
REMARK  110  A    between atoms: _277  and  _278
REMARK  111  A    between atoms: _277  and  _280
REMARK  112  A    between atoms: _280  and  _281
REMARK  113  A    between atoms: _284  and  _286
REMARK  114  A    between atoms: _286  and  _287
REMARK  115  A    between atoms: _286  and  _289
REMARK  116  A    between atoms: _289  and  _290
REMARK  117  A    between atoms: _290  and  _291
REMARK  118  A    between atoms: _293  and  _295
REMARK  119  A    between atoms: _295  and  _296
REMARK  120  A    between atoms: _295  and  _298
REMARK  121  A    between atoms: _298  and  _299
REMARK  122  A    between atoms: _299  and  _300
REMARK  123  A    between atoms: _302  and  _304
REMARK  124  A    between atoms: _304  and  _305
REMARK  125  A    between atoms: _304  and  _307
REMARK  126  A    between atoms: _310  and  _312
REMARK  127  A    between atoms: _312  and  _313
REMARK  128  A    between atoms: _312  and  _315
REMARK  129  A    between atoms: _315  and  _316
REMARK  130  A    between atoms: _316  and  _317
REMARK  131  A    between atoms: _317  and  _318
REMARK  132  A    between atoms: _327  and  _329
REMARK  133  A    between atoms: _329  and  _330
REMARK  134  A    between atoms: _329  and  _332
REMARK  135  A    between atoms: _332  and  _333
REMARK  136  A    between atoms: _333  and  _334
REMARK  137  A    between atoms: _336  and  _338
REMARK  138  A    between atoms: _338  and  _339
REMARK  139  A    between atoms: _338  and  _341
REMARK  140  A    between atoms: _341  and  _342
REMARK  141  A    between atoms: _342  and  _343
REMARK  142  A    between atoms: _343  and  _344
REMARK  143  A    between atoms: _344  and  _345
REMARK  144  A    between atoms: _349  and  _351
REMARK  145  A    between atoms: _351  and  _352
REMARK  146  A    between atoms: _354  and  _356
REMARK  147  A    between atoms: _356  and  _357
REMARK  148  A    between atoms: _356  and  _359
REMARK  149  A    between atoms: _359  and  _360
REMARK  150  A    between atoms: _360  and  _361
REMARK  151  A    between atoms: _361  and  MG_407
REMARK  152  A    between atoms: _363  and  _365
REMARK  153  A    between atoms: _365  and  _366
REMARK  154  A    between atoms: _365  and  _368
REMARK  155  A    between atoms: _368  and  _369
REMARK  156  A    between atoms: _372  and  _374
REMARK  157  A    between atoms: _374  and  _375
REMARK  158  A    between atoms: _374  and  _377
REMARK  159  A    between atoms: _377  and  _378
REMARK  160  A    between atoms: _380  and  _382
REMARK  161  A    between atoms: _382  and  _383
REMARK  162  A    between atoms: _382  and  _385
REMARK  163  A    between atoms: _385  and  _386
REMARK  164  A    between atoms: _389  and  _391
REMARK  165  A    between atoms: _391  and  _392
REMARK  166  A    between atoms: _391  and  _394
REMARK  167  A    between atoms: _394  and  _395
REMARK  168  A    between atoms: _395  and  _396
REMARK  169  A    between atoms: _399  and  _401
REMARK  170  A    between atoms: _401  and  _402
REMARK  171  A    between atoms: _401  and  _404
REMARK  172  A    between atoms: _404  and  _405
REMARK                            x       y       z     vdW  Elec       q    Type
REMARK                         _______ _______ _______ _____ _____    ______ ____
ROOT
ATOM      1  CA  GLU A   1      79.125   1.972  14.680  0.00  0.00    +0.134 C 
ENDROOT
BRANCH   1   2
ATOM      2  N   GLU A   1      80.334   2.675  15.083  0.00  0.00    -0.239 NA
ATOM      3  H   GLU A   1      81.263   2.224  14.957  0.00  0.00    +0.142 HD
ENDBRANCH   1   2
BRANCH   1   4
ATOM      4  C   GLU A   1      78.314   1.536  15.909  0.00  0.00    +0.224 C 
ATOM      5  O   GLU A   1      77.080   1.563  15.903  0.00  0.00    -0.287 OA
ENDBRANCH   1   4
BRANCH   1   6
ATOM      6  CB  GLU A   1      79.475   0.751  13.827  0.00  0.00    +0.037 C 
BRANCH   6   7
ATOM      7  CG  GLU A   1      78.249  -0.051  13.462  0.00  0.00    +0.116 C 
BRANCH   7   8
ATOM      8  CD  GLU A   1      78.578  -1.384  12.829  0.00  0.00    +0.365 C 
ATOM      9  OE2 GLU A   1      79.590  -2.005  13.212  0.00  0.00    -0.246 OA
ATOM     10  OE1 GLU A   1      77.801  -1.822  11.962  0.00  0.00    -0.246 OA
ENDBRANCH   7   8
ENDBRANCH   6   7
ENDBRANCH   1   6
TORSDOF 5
REMARK  Name = ../refined-set-2016/1rql/1rql_pocket.pdb
REMARK  172 active torsions:
REMARK  status: ('A' for Active; 'I' for Inactive)
REMARK    1  A    between atoms: _1  and  _3
REMARK    2  A    between atoms: _3  and  _4
REMARK    3  A    between atoms: _3  and  _6
REMARK    4  A    between atoms: _6  and  _7
REMARK    5  A    between atoms: _13  and  _15
REMARK    6  A    between atoms: _15  and  _16
REMARK    7  A    between atoms: _15  and  _18
REMARK    8  A    between atoms: _18  and  _19
REMARK    9  A    between atoms: _22  and  _24
REMARK   10  A    between atoms: _24  and  _25
REMARK   11  A    between atoms: _24  and  _27
REMARK   12  A    between atoms: _27  and  _28
REMARK   13  A    between atoms: _38  and  _40
REMARK   14  A    between atoms: _40  and  _41
REMARK   15  A    between atoms: _41  and  _42
REMARK   16  A    between atoms: _41  and  _44
REMARK   17  A    between atoms: _42  and  MG_407
REMARK   18  A    between atoms: _44  and  _46
REMARK   19  A    between atoms: _46  and  _47
REMARK   20  A    between atoms: _49  and  _51
REMARK   21  A    between atoms: _51  and  _52
REMARK   22  A    between atoms: _51  and  _54
REMARK   23  A    between atoms: _54  and  _55
REMARK   24  A    between atoms: _58  and  _60
REMARK   25  A    between atoms: _60  and  _61
REMARK   26  A    between atoms: _60  and  _63
REMARK   27  A    between atoms: _63  and  _64
REMARK   28  A    between atoms: _67  and  _69
REMARK   29  A    between atoms: _69  and  _70
REMARK   30  A    between atoms: _69  and  _72
REMARK   31  A    between atoms: _75  and  _77
REMARK   32  A    between atoms: _77  and  _78
REMARK   33  A    between atoms: _77  and  _80
REMARK   34  A    between atoms: _80  and  _81
REMARK   35  A    between atoms: _84  and  _86
REMARK   36  A    between atoms: _86  and  _87
REMARK   37  A    between atoms: _86  and  _89
REMARK   38  A    between atoms: _91  and  _93
REMARK   39  A    between atoms: _93  and  _94
REMARK   40  A    between atoms: _93  and  _96
REMARK   41  A    between atoms: _96  and  _97
REMARK   42  A    between atoms: _103  and  _105
REMARK   43  A    between atoms: _105  and  _106
REMARK   44  A    between atoms: _110  and  _111
REMARK   45  A    between atoms: _116  and  _118
REMARK   46  A    between atoms: _118  and  _119
REMARK   47  A    between atoms: _118  and  _121
REMARK   48  A    between atoms: _121  and  _122
REMARK   49  A    between atoms: _125  and  _127
REMARK   50  A    between atoms: _127  and  _128
REMARK   51  A    between atoms: _127  and  _130
REMARK   52  A    between atoms: _130  and  _131
REMARK   53  A    between atoms: _137  and  _139
REMARK   54  A    between atoms: _139  and  _140
REMARK   55  A    between atoms: _139  and  _142
REMARK   56  A    between atoms: _142  and  _143
REMARK   57  A    between atoms: _143  and  _144
REMARK   58  A    between atoms: _144  and  _145
REMARK   59  A    between atoms: _155  and  _156
REMARK   60  A    between atoms: _161  and  _163
REMARK   61  A    between atoms: _163  and  _164
REMARK   62  A    between atoms: _163  and  _166
REMARK   63  A    between atoms: _166  and  _167
REMARK   64  A    between atoms: _167  and  _168
REMARK   65  A    between atoms: _170  and  _172
REMARK   66  A    between atoms: _172  and  _173
REMARK   67  A    between atoms: _175  and  _177
REMARK   68  A    between atoms: _177  and  _178
REMARK   69  A    between atoms: _177  and  _180
REMARK   70  A    between atoms: _180  and  _181
REMARK   71  A    between atoms: _184  and  _186
REMARK   72  A    between atoms: _186  and  _187
REMARK   73  A    between atoms: _186  and  _189
REMARK   74  A    between atoms: _189  and  _190
REMARK   75  A    between atoms: _193  and  _195
REMARK   76  A    between atoms: _195  and  _196
REMARK   77  A    between atoms: _195  and  _198
REMARK   78  A    between atoms: _198  and  _199
REMARK   79  A    between atoms: _199  and  _200
REMARK   80  A    between atoms: _200  and  _201
REMARK   81  A    between atoms: _201  and  _202
REMARK   82  A    between atoms: _206  and  _208
REMARK   83  A    between atoms: _208  and  _209
REMARK   84  A    between atoms: _208  and  _211
REMARK   85  A    between atoms: _211  and  _212
REMARK   86  A    between atoms: _217  and  _219
REMARK   87  A    between atoms: _219  and  _220
REMARK   88  A    between atoms: _219  and  _222
REMARK   89  A    between atoms: _222  and  _223
REMARK   90  A    between atoms: _229  and  _231
REMARK   91  A    between atoms: _231  and  _232
REMARK   92  A    between atoms: _231  and  _234
REMARK   93  A    between atoms: _234  and  _235
REMARK   94  A    between atoms: _238  and  _240
REMARK   95  A    between atoms: _240  and  _241
REMARK   96  A    between atoms: _240  and  _243
REMARK   97  A    between atoms: _243  and  _244
REMARK   98  A    between atoms: _247  and  _249
REMARK   99  A    between atoms: _249  and  _250
REMARK  100  A    between atoms: _249  and  _252
REMARK  101  A    between atoms: _252  and  _253
REMARK  102  A    between atoms: _256  and  _258
REMARK  103  A    between atoms: _258  and  _259
REMARK  104  A    between atoms: _261  and  _263
REMARK  105  A    between atoms: _263  and  _264
REMARK  106  A    between atoms: _263  and  _266
REMARK  107  A    between atoms: _266  and  _267
REMARK  108  A    between atoms: _272  and  _273
REMARK  109  A    between atoms: _275  and  _277
REMARK  110  A    between atoms: _277  and  _278
REMARK  111  A    between atoms: _277  and  _280
REMARK  112  A    between atoms: _280  and  _281
REMARK  113  A    between atoms: _284  and  _286
REMARK  114  A    between atoms: _286  and  _287
REMARK  115  A    between atoms: _286  and  _289
REMARK  116  A    between atoms: _289  and  _290
REMARK  117  A    between atoms: _290  and  _291
REMARK  118  A    between atoms: _293  and  _295
REMARK  119  A    between atoms: _295  and  _296
REMARK  120  A    between atoms: _295  and  _298
REMARK  121  A    between atoms: _298  and  _299
REMARK  122  A    between atoms: _299  and  _300
REMARK  123  A    between atoms: _302  and  _304
REMARK  124  A    between atoms: _304  and  _305
REMARK  125  A    between atoms: _304  and  _307
REMARK  126  A    between atoms: _310  and  _312
REMARK  127  A    between atoms: _312  and  _313
REMARK  128  A    between atoms: _312  and  _315
REMARK  129  A    between atoms: _315  and  _316
REMARK  130  A    between atoms: _316  and  _317
REMARK  131  A    between atoms: _317  and  _318
REMARK  132  A    between atoms: _327  and  _329
REMARK  133  A    between atoms: _329  and  _330
REMARK  134  A    between atoms: _329  and  _332
REMARK  135  A    between atoms: _332  and  _333
REMARK  136  A    between atoms: _333  and  _334
REMARK  137  A    between atoms: _336  and  _338
REMARK  138  A    between atoms: _338  and  _339
REMARK  139  A    between atoms: _338  and  _341
REMARK  140  A    between atoms: _341  and  _342
REMARK  141  A    between atoms: _342  and  _343
REMARK  142  A    between atoms: _343  and  _344
REMARK  143  A    between atoms: _344  and  _345
REMARK  144  A    between atoms: _349  and  _351
REMARK  145  A    between atoms: _351  and  _352
REMARK  146  A    between atoms: _354  and  _356
REMARK  147  A    between atoms: _356  and  _357
REMARK  148  A    between atoms: _356  and  _359
REMARK  149  A    between atoms: _359  and  _360
REMARK  150  A    between atoms: _360  and  _361
REMARK  151  A    between atoms: _361  and  MG_407
REMARK  152  A    between atoms: _363  and  _365
REMARK  153  A    between atoms: _365  and  _366
REMARK  154  A    between atoms: _365  and  _368
REMARK  155  A    between atoms: _368  and  _369
REMARK  156  A    between atoms: _372  and  _374
REMARK  157  A    between atoms: _374  and  _375
REMARK  158  A    between atoms: _374  and  _377
REMARK  159  A    between atoms: _377  and  _378
REMARK  160  A    between atoms: _380  and  _382
REMARK  161  A    between atoms: _382  and  _383
REMARK  162  A    between atoms: _382  and  _385
REMARK  163  A    between atoms: _385  and  _386
REMARK  164  A    between atoms: _389  and  _391
REMARK  165  A    between atoms: _391  and  _392
REMARK  166  A    between atoms: _391  and  _394
REMARK  167  A    between atoms: _394  and  _395
REMARK  168  A    between atoms: _395  and  _396
REMARK  169  A    between atoms: _399  and  _401
REMARK  170  A    between atoms: _401  and  _402
REMARK  171  A    between atoms: _401  and  _404
REMARK  172  A    between atoms: _404  and  _405
REMARK                            x       y       z     vdW  Elec       q    Type
REMARK                         _______ _______ _______ _____ _____    ______ ____
ROOT
ATOM      1  CA  SER A   1      93.356  -4.408  12.587  0.00  0.00    +0.000 C 
ENDROOT
BRANCH   1   2
ATOM      2  N   SER A   1      92.770  -5.074  13.739  0.00  0.00    +0.000 NA
ATOM      3  H   SER A   1      91.752  -4.961  13.921  0.00  0.00    +0.000 HD
ENDBRANCH   1   2
BRANCH   1   4
ATOM      4  CB  SER A   1      94.250  -3.324  13.161  0.00  0.00    +0.000 C 
ATOM      5  OG  SER A   1      95.385  -3.134  12.722  0.00  0.00    +0.000 OA
ENDBRANCH   1   4
BRANCH   1   6
ATOM      6  C   SER A   1      92.254  -3.770  11.732  0.00  0.00    +0.000 C 
BRANCH   6   7
ATOM      7  O   SER A   1      92.786  -3.092  10.609  0.00  0.00    +0.000 OA
ATOM      8  H   SER A   1      93.396  -2.375  10.916  0.00  0.00    +0.000 HD
ENDBRANCH   6   7
ENDBRANCH   1   6
TORSDOF 4
REMARK  Name = ../refined-set-2016/1rql/1rql_pocket.pdb
REMARK  172 active torsions:
REMARK  status: ('A' for Active; 'I' for Inactive)
REMARK    1  A    between atoms: _1  and  _3
REMARK    2  A    between atoms: _3  and  _4
REMARK    3  A    between atoms: _3  and  _6
REMARK    4  A    between atoms: _6  and  _7
REMARK    5  A    between atoms: _13  and  _15
REMARK    6  A    between atoms: _15  and  _16
REMARK    7  A    between atoms: _15  and  _18
REMARK    8  A    between atoms: _18  and  _19
REMARK    9  A    between atoms: _22  and  _24
REMARK   10  A    between atoms: _24  and  _25
REMARK   11  A    between atoms: _24  and  _27
REMARK   12  A    between atoms: _27  and  _28
REMARK   13  A    between atoms: _38  and  _40
REMARK   14  A    between atoms: _40  and  _41
REMARK   15  A    between atoms: _41  and  _42
REMARK   16  A    between atoms: _41  and  _44
REMARK   17  A    between atoms: _42  and  MG_407
REMARK   18  A    between atoms: _44  and  _46
REMARK   19  A    between atoms: _46  and  _47
REMARK   20  A    between atoms: _49  and  _51
REMARK   21  A    between atoms: _51  and  _52
REMARK   22  A    between atoms: _51  and  _54
REMARK   23  A    between atoms: _54  and  _55
REMARK   24  A    between atoms: _58  and  _60
REMARK   25  A    between atoms: _60  and  _61
REMARK   26  A    between atoms: _60  and  _63
REMARK   27  A    between atoms: _63  and  _64
REMARK   28  A    between atoms: _67  and  _69
REMARK   29  A    between atoms: _69  and  _70
REMARK   30  A    between atoms: _69  and  _72
REMARK   31  A    between atoms: _75  and  _77
REMARK   32  A    between atoms: _77  and  _78
REMARK   33  A    between atoms: _77  and  _80
REMARK   34  A    between atoms: _80  and  _81
REMARK   35  A    between atoms: _84  and  _86
REMARK   36  A    between atoms: _86  and  _87
REMARK   37  A    between atoms: _86  and  _89
REMARK   38  A    between atoms: _91  and  _93
REMARK   39  A    between atoms: _93  and  _94
REMARK   40  A    between atoms: _93  and  _96
REMARK   41  A    between atoms: _96  and  _97
REMARK   42  A    between atoms: _103  and  _105
REMARK   43  A    between atoms: _105  and  _106
REMARK   44  A    between atoms: _110  and  _111
REMARK   45  A    between atoms: _116  and  _118
REMARK   46  A    between atoms: _118  and  _119
REMARK   47  A    between atoms: _118  and  _121
REMARK   48  A    between atoms: _121  and  _122
REMARK   49  A    between atoms: _125  and  _127
REMARK   50  A    between atoms: _127  and  _128
REMARK   51  A    between atoms: _127  and  _130
REMARK   52  A    between atoms: _130  and  _131
REMARK   53  A    between atoms: _137  and  _139
REMARK   54  A    between atoms: _139  and  _140
REMARK   55  A    between atoms: _139  and  _142
REMARK   56  A    between atoms: _142  and  _143
REMARK   57  A    between atoms: _143  and  _144
REMARK   58  A    between atoms: _144  and  _145
REMARK   59  A    between atoms: _155  and  _156
REMARK   60  A    between atoms: _161  and  _163
REMARK   61  A    between atoms: _163  and  _164
REMARK   62  A    between atoms: _163  and  _166
REMARK   63  A    between atoms: _166  and  _167
REMARK   64  A    between atoms: _167  and  _168
REMARK   65  A    between atoms: _170  and  _172
REMARK   66  A    between atoms: _172  and  _173
REMARK   67  A    between atoms: _175  and  _177
REMARK   68  A    between atoms: _177  and  _178
REMARK   69  A    between atoms: _177  and  _180
REMARK   70  A    between atoms: _180  and  _181
REMARK   71  A    between atoms: _184  and  _186
REMARK   72  A    between atoms: _186  and  _187
REMARK   73  A    between atoms: _186  and  _189
REMARK   74  A    between atoms: _189  and  _190
REMARK   75  A    between atoms: _193  and  _195
REMARK   76  A    between atoms: _195  and  _196
REMARK   77  A    between atoms: _195  and  _198
REMARK   78  A    between atoms: _198  and  _199
REMARK   79  A    between atoms: _199  and  _200
REMARK   80  A    between atoms: _200  and  _201
REMARK   81  A    between atoms: _201  and  _202
REMARK   82  A    between atoms: _206  and  _208
REMARK   83  A    between atoms: _208  and  _209
REMARK   84  A    between atoms: _208  and  _211
REMARK   85  A    between atoms: _211  and  _212
REMARK   86  A    between atoms: _217  and  _219
REMARK   87  A    between atoms: _219  and  _220
REMARK   88  A    between atoms: _219  and  _222
REMARK   89  A    between atoms: _222  and  _223
REMARK   90  A    between atoms: _229  and  _231
REMARK   91  A    between atoms: _231  and  _232
REMARK   92  A    between atoms: _231  and  _234
REMARK   93  A    between atoms: _234  and  _235
REMARK   94  A    between atoms: _238  and  _240
REMARK   95  A    between atoms: _240  and  _241
REMARK   96  A    between atoms: _240  and  _243
REMARK   97  A    between atoms: _243  and  _244
REMARK   98  A    between atoms: _247  and  _249
REMARK   99  A    between atoms: _249  and  _250
REMARK  100  A    between atoms: _249  and  _252
REMARK  101  A    between atoms: _252  and  _253
REMARK  102  A    between atoms: _256  and  _258
REMARK  103  A    between atoms: _258  and  _259
REMARK  104  A    between atoms: _261  and  _263
REMARK  105  A    between atoms: _263  and  _264
REMARK  106  A    between atoms: _263  and  _266
REMARK  107  A    between atoms: _266  and  _267
REMARK  108  A    between atoms: _272  and  _273
REMARK  109  A    between atoms: _275  and  _277
REMARK  110  A    between atoms: _277  and  _278
REMARK  111  A    between atoms: _277  and  _280
REMARK  112  A    between atoms: _280  and  _281
REMARK  113  A    between atoms: _284  and  _286
REMARK  114  A    between atoms: _286  and  _287
REMARK  115  A    between atoms: _286  and  _289
REMARK  116  A    between atoms: _289  and  _290
REMARK  117  A    between atoms: _290  and  _291
REMARK  118  A    between atoms: _293  and  _295
REMARK  119  A    between atoms: _295  and  _296
REMARK  120  A    between atoms: _295  and  _298
REMARK  121  A    between atoms: _298  and  _299
REMARK  122  A    between atoms: _299  and  _300
REMARK  123  A    between atoms: _302  and  _304
REMARK  124  A    between atoms: _304  and  _305
REMARK  125  A    between atoms: _304  and  _307
REMARK  126  A    between atoms: _310  and  _312
REMARK  127  A    between atoms: _312  and  _313
REMARK  128  A    between atoms: _312  and  _315
REMARK  129  A    between atoms: _315  and  _316
REMARK  130  A    between atoms: _316  and  _317
REMARK  131  A    between atoms: _317  and  _318
REMARK  132  A    between atoms: _327  and  _329
REMARK  133  A    between atoms: _329  and  _330
REMARK  134  A    between atoms: _329  and  _332
REMARK  135  A    between atoms: _332  and  _333
REMARK  136  A    between atoms: _333  and  _334
REMARK  137  A    between atoms: _336  and  _338
REMARK  138  A    between atoms: _338  and  _339
REMARK  139  A    between atoms: _338  and  _341
REMARK  140  A    between atoms: _341  and  _342
REMARK  141  A    between atoms: _342  and  _343
REMARK  142  A    between atoms: _343  and  _344
REMARK  143  A    between atoms: _344  and  _345
REMARK  144  A    between atoms: _349  and  _351
REMARK  145  A    between atoms: _351  and  _352
REMARK  146  A    between atoms: _354  and  _356
REMARK  147  A    between atoms: _356  and  _357
REMARK  148  A    between atoms: _356  and  _359
REMARK  149  A    between atoms: _359  and  _360
REMARK  150  A    between atoms: _360  and  _361
REMARK  151  A    between atoms: _361  and  MG_407
REMARK  152  A    between atoms: _363  and  _365
REMARK  153  A    between atoms: _365  and  _366
REMARK  154  A    between atoms: _365  and  _368
REMARK  155  A    between atoms: _368  and  _369
REMARK  156  A    between atoms: _372  and  _374
REMARK  157  A    between atoms: _374  and  _375
REMARK  158  A    between atoms: _374  and  _377
REMARK  159  A    between atoms: _377  and  _378
REMARK  160  A    between atoms: _380  and  _382
REMARK  161  A    between atoms: _382  and  _383
REMARK  162  A    between atoms: _382  and  _385
REMARK  163  A    between atoms: _385  and  _386
REMARK  164  A    between atoms: _389  and  _391
REMARK  165  A    between atoms: _391  and  _392
REMARK  166  A    between atoms: _391  and  _394
REMARK  167  A    between atoms: _394  and  _395
REMARK  168  A    between atoms: _395  and  _396
REMARK  169  A    between atoms: _399  and  _401
REMARK  170  A    between atoms: _401  and  _402
REMARK  171  A    between atoms: _401  and  _404
REMARK  172  A    between atoms: _404  and  _405
REMARK                            x       y       z     vdW  Elec       q    Type
REMARK                         _______ _______ _______ _____ _____    ______ ____
ROOT
ATOM      1  O   HOH     1      81.470 -12.017  12.562  0.00  0.00    +0.000 OA
ENDROOT
TORSDOF 0
REMARK  Name = ../refined-set-2016/1rql/1rql_pocket.pdb
REMARK  172 active torsions:
REMARK  status: ('A' for Active; 'I' for Inactive)
REMARK    1  A    between atoms: _1  and  _3
REMARK    2  A    between atoms: _3  and  _4
REMARK    3  A    between atoms: _3  and  _6
REMARK    4  A    between atoms: _6  and  _7
REMARK    5  A    between atoms: _13  and  _15
REMARK    6  A    between atoms: _15  and  _16
REMARK    7  A    between atoms: _15  and  _18
REMARK    8  A    between atoms: _18  and  _19
REMARK    9  A    between atoms: _22  and  _24
REMARK   10  A    between atoms: _24  and  _25
REMARK   11  A    between atoms: _24  and  _27
REMARK   12  A    between atoms: _27  and  _28
REMARK   13  A    between atoms: _38  and  _40
REMARK   14  A    between atoms: _40  and  _41
REMARK   15  A    between atoms: _41  and  _42
REMARK   16  A    between atoms: _41  and  _44
REMARK   17  A    between atoms: _42  and  MG_407
REMARK   18  A    between atoms: _44  and  _46
REMARK   19  A    between atoms: _46  and  _47
REMARK   20  A    between atoms: _49  and  _51
REMARK   21  A    between atoms: _51  and  _52
REMARK   22  A    between atoms: _51  and  _54
REMARK   23  A    between atoms: _54  and  _55
REMARK   24  A    between atoms: _58  and  _60
REMARK   25  A    between atoms: _60  and  _61
REMARK   26  A    between atoms: _60  and  _63
REMARK   27  A    between atoms: _63  and  _64
REMARK   28  A    between atoms: _67  and  _69
REMARK   29  A    between atoms: _69  and  _70
REMARK   30  A    between atoms: _69  and  _72
REMARK   31  A    between atoms: _75  and  _77
REMARK   32  A    between atoms: _77  and  _78
REMARK   33  A    between atoms: _77  and  _80
REMARK   34  A    between atoms: _80  and  _81
REMARK   35  A    between atoms: _84  and  _86
REMARK   36  A    between atoms: _86  and  _87
REMARK   37  A    between atoms: _86  and  _89
REMARK   38  A    between atoms: _91  and  _93
REMARK   39  A    between atoms: _93  and  _94
REMARK   40  A    between atoms: _93  and  _96
REMARK   41  A    between atoms: _96  and  _97
REMARK   42  A    between atoms: _103  and  _105
REMARK   43  A    between atoms: _105  and  _106
REMARK   44  A    between atoms: _110  and  _111
REMARK   45  A    between atoms: _116  and  _118
REMARK   46  A    between atoms: _118  and  _119
REMARK   47  A    between atoms: _118  and  _121
REMARK   48  A    between atoms: _121  and  _122
REMARK   49  A    between atoms: _125  and  _127
REMARK   50  A    between atoms: _127  and  _128
REMARK   51  A    between atoms: _127  and  _130
REMARK   52  A    between atoms: _130  and  _131
REMARK   53  A    between atoms: _137  and  _139
REMARK   54  A    between atoms: _139  and  _140
REMARK   55  A    between atoms: _139  and  _142
REMARK   56  A    between atoms: _142  and  _143
REMARK   57  A    between atoms: _143  and  _144
REMARK   58  A    between atoms: _144  and  _145
REMARK   59  A    between atoms: _155  and  _156
REMARK   60  A    between atoms: _161  and  _163
REMARK   61  A    between atoms: _163  and  _164
REMARK   62  A    between atoms: _163  and  _166
REMARK   63  A    between atoms: _166  and  _167
REMARK   64  A    between atoms: _167  and  _168
REMARK   65  A    between atoms: _170  and  _172
REMARK   66  A    between atoms: _172  and  _173
REMARK   67  A    between atoms: _175  and  _177
REMARK   68  A    between atoms: _177  and  _178
REMARK   69  A    between atoms: _177  and  _180
REMARK   70  A    between atoms: _180  and  _181
REMARK   71  A    between atoms: _184  and  _186
REMARK   72  A    between atoms: _186  and  _187
REMARK   73  A    between atoms: _186  and  _189
REMARK   74  A    between atoms: _189  and  _190
REMARK   75  A    between atoms: _193  and  _195
REMARK   76  A    between atoms: _195  and  _196
REMARK   77  A    between atoms: _195  and  _198
REMARK   78  A    between atoms: _198  and  _199
REMARK   79  A    between atoms: _199  and  _200
REMARK   80  A    between atoms: _200  and  _201
REMARK   81  A    between atoms: _201  and  _202
REMARK   82  A    between atoms: _206  and  _208
REMARK   83  A    between atoms: _208  and  _209
REMARK   84  A    between atoms: _208  and  _211
REMARK   85  A    between atoms: _211  and  _212
REMARK   86  A    between atoms: _217  and  _219
REMARK   87  A    between atoms: _219  and  _220
REMARK   88  A    between atoms: _219  and  _222
REMARK   89  A    between atoms: _222  and  _223
REMARK   90  A    between atoms: _229  and  _231
REMARK   91  A    between atoms: _231  and  _232
REMARK   92  A    between atoms: _231  and  _234
REMARK   93  A    between atoms: _234  and  _235
REMARK   94  A    between atoms: _238  and  _240
REMARK   95  A    between atoms: _240  and  _241
REMARK   96  A    between atoms: _240  and  _243
REMARK   97  A    between atoms: _243  and  _244
REMARK   98  A    between atoms: _247  and  _249
REMARK   99  A    between atoms: _249  and  _250
REMARK  100  A    between atoms: _249  and  _252
REMARK  101  A    between atoms: _252  and  _253
REMARK  102  A    between atoms: _256  and  _258
REMARK  103  A    between atoms: _258  and  _259
REMARK  104  A    between atoms: _261  and  _263
REMARK  105  A    between atoms: _263  and  _264
REMARK  106  A    between atoms: _263  and  _266
REMARK  107  A    between atoms: _266  and  _267
REMARK  108  A    between atoms: _272  and  _273
REMARK  109  A    between atoms: _275  and  _277
REMARK  110  A    between atoms: _277  and  _278
REMARK  111  A    between atoms: _277  and  _280
REMARK  112  A    between atoms: _280  and  _281
REMARK  113  A    between atoms: _284  and  _286
REMARK  114  A    between atoms: _286  and  _287
REMARK  115  A    between atoms: _286  and  _289
REMARK  116  A    between atoms: _289  and  _290
REMARK  117  A    between atoms: _290  and  _291
REMARK  118  A    between atoms: _293  and  _295
REMARK  119  A    between atoms: _295  and  _296
REMARK  120  A    between atoms: _295  and  _298
REMARK  121  A    between atoms: _298  and  _299
REMARK  122  A    between atoms: _299  and  _300
REMARK  123  A    between atoms: _302  and  _304
REMARK  124  A    between atoms: _304  and  _305
REMARK  125  A    between atoms: _304  and  _307
REMARK  126  A    between atoms: _310  and  _312
REMARK  127  A    between atoms: _312  and  _313
REMARK  128  A    between atoms: _312  and  _315
REMARK  129  A    between atoms: _315  and  _316
REMARK  130  A    between atoms: _316  and  _317
REMARK  131  A    between atoms: _317  and  _318
REMARK  132  A    between atoms: _327  and  _329
REMARK  133  A    between atoms: _329  and  _330
REMARK  134  A    between atoms: _329  and  _332
REMARK  135  A    between atoms: _332  and  _333
REMARK  136  A    between atoms: _333  and  _334
REMARK  137  A    between atoms: _336  and  _338
REMARK  138  A    between atoms: _338  and  _339
REMARK  139  A    between atoms: _338  and  _341
REMARK  140  A    between atoms: _341  and  _342
REMARK  141  A    between atoms: _342  and  _343
REMARK  142  A    between atoms: _343  and  _344
REMARK  143  A    between atoms: _344  and  _345
REMARK  144  A    between atoms: _349  and  _351
REMARK  145  A    between atoms: _351  and  _352
REMARK  146  A    between atoms: _354  and  _356
REMARK  147  A    between atoms: _356  and  _357
REMARK  148  A    between atoms: _356  and  _359
REMARK  149  A    between atoms: _359  and  _360
REMARK  150  A    between atoms: _360  and  _361
REMARK  151  A    between atoms: _361  and  MG_407
REMARK  152  A    between atoms: _363  and  _365
REMARK  153  A    between atoms: _365  and  _366
REMARK  154  A    between atoms: _365  and  _368
REMARK  155  A    between atoms: _368  and  _369
REMARK  156  A    between atoms: _372  and  _374
REMARK  157  A    between atoms: _374  and  _375
REMARK  158  A    between atoms: _374  and  _377
REMARK  159  A    between atoms: _377  and  _378
REMARK  160  A    between atoms: _380  and  _382
REMARK  161  A    between atoms: _382  and  _383
REMARK  162  A    between atoms: _382  and  _385
REMARK  163  A    between atoms: _385  and  _386
REMARK  164  A    between atoms: _389  and  _391
REMARK  165  A    between atoms: _391  and  _392
REMARK  166  A    between atoms: _391  and  _394
REMARK  167  A    between atoms: _394  and  _395
REMARK  168  A    between atoms: _395  and  _396
REMARK  169  A    between atoms: _399  and  _401
REMARK  170  A    between atoms: _401  and  _402
REMARK  171  A    between atoms: _401  and  _404
REMARK  172  A    between atoms: _404  and  _405
REMARK                            x       y       z     vdW  Elec       q    Type
REMARK                         _______ _______ _______ _____ _____    ______ ____
ROOT
ATOM      1  O   HOH     1      81.066  -1.465   6.688  0.00  0.00    +0.000 OA
ENDROOT
TORSDOF 0
REMARK  Name = ../refined-set-2016/1rql/1rql_pocket.pdb
REMARK  172 active torsions:
REMARK  status: ('A' for Active; 'I' for Inactive)
REMARK    1  A    between atoms: _1  and  _3
REMARK    2  A    between atoms: _3  and  _4
REMARK    3  A    between atoms: _3  and  _6
REMARK    4  A    between atoms: _6  and  _7
REMARK    5  A    between atoms: _13  and  _15
REMARK    6  A    between atoms: _15  and  _16
REMARK    7  A    between atoms: _15  and  _18
REMARK    8  A    between atoms: _18  and  _19
REMARK    9  A    between atoms: _22  and  _24
REMARK   10  A    between atoms: _24  and  _25
REMARK   11  A    between atoms: _24  and  _27
REMARK   12  A    between atoms: _27  and  _28
REMARK   13  A    between atoms: _38  and  _40
REMARK   14  A    between atoms: _40  and  _41
REMARK   15  A    between atoms: _41  and  _42
REMARK   16  A    between atoms: _41  and  _44
REMARK   17  A    between atoms: _42  and  MG_407
REMARK   18  A    between atoms: _44  and  _46
REMARK   19  A    between atoms: _46  and  _47
REMARK   20  A    between atoms: _49  and  _51
REMARK   21  A    between atoms: _51  and  _52
REMARK   22  A    between atoms: _51  and  _54
REMARK   23  A    between atoms: _54  and  _55
REMARK   24  A    between atoms: _58  and  _60
REMARK   25  A    between atoms: _60  and  _61
REMARK   26  A    between atoms: _60  and  _63
REMARK   27  A    between atoms: _63  and  _64
REMARK   28  A    between atoms: _67  and  _69
REMARK   29  A    between atoms: _69  and  _70
REMARK   30  A    between atoms: _69  and  _72
REMARK   31  A    between atoms: _75  and  _77
REMARK   32  A    between atoms: _77  and  _78
REMARK   33  A    between atoms: _77  and  _80
REMARK   34  A    between atoms: _80  and  _81
REMARK   35  A    between atoms: _84  and  _86
REMARK   36  A    between atoms: _86  and  _87
REMARK   37  A    between atoms: _86  and  _89
REMARK   38  A    between atoms: _91  and  _93
REMARK   39  A    between atoms: _93  and  _94
REMARK   40  A    between atoms: _93  and  _96
REMARK   41  A    between atoms: _96  and  _97
REMARK   42  A    between atoms: _103  and  _105
REMARK   43  A    between atoms: _105  and  _106
REMARK   44  A    between atoms: _110  and  _111
REMARK   45  A    between atoms: _116  and  _118
REMARK   46  A    between atoms: _118  and  _119
REMARK   47  A    between atoms: _118  and  _121
REMARK   48  A    between atoms: _121  and  _122
REMARK   49  A    between atoms: _125  and  _127
REMARK   50  A    between atoms: _127  and  _128
REMARK   51  A    between atoms: _127  and  _130
REMARK   52  A    between atoms: _130  and  _131
REMARK   53  A    between atoms: _137  and  _139
REMARK   54  A    between atoms: _139  and  _140
REMARK   55  A    between atoms: _139  and  _142
REMARK   56  A    between atoms: _142  and  _143
REMARK   57  A    between atoms: _143  and  _144
REMARK   58  A    between atoms: _144  and  _145
REMARK   59  A    between atoms: _155  and  _156
REMARK   60  A    between atoms: _161  and  _163
REMARK   61  A    between atoms: _163  and  _164
REMARK   62  A    between atoms: _163  and  _166
REMARK   63  A    between atoms: _166  and  _167
REMARK   64  A    between atoms: _167  and  _168
REMARK   65  A    between atoms: _170  and  _172
REMARK   66  A    between atoms: _172  and  _173
REMARK   67  A    between atoms: _175  and  _177
REMARK   68  A    between atoms: _177  and  _178
REMARK   69  A    between atoms: _177  and  _180
REMARK   70  A    between atoms: _180  and  _181
REMARK   71  A    between atoms: _184  and  _186
REMARK   72  A    between atoms: _186  and  _187
REMARK   73  A    between atoms: _186  and  _189
REMARK   74  A    between atoms: _189  and  _190
REMARK   75  A    between atoms: _193  and  _195
REMARK   76  A    between atoms: _195  and  _196
REMARK   77  A    between atoms: _195  and  _198
REMARK   78  A    between atoms: _198  and  _199
REMARK   79  A    between atoms: _199  and  _200
REMARK   80  A    between atoms: _200  and  _201
REMARK   81  A    between atoms: _201  and  _202
REMARK   82  A    between atoms: _206  and  _208
REMARK   83  A    between atoms: _208  and  _209
REMARK   84  A    between atoms: _208  and  _211
REMARK   85  A    between atoms: _211  and  _212
REMARK   86  A    between atoms: _217  and  _219
REMARK   87  A    between atoms: _219  and  _220
REMARK   88  A    between atoms: _219  and  _222
REMARK   89  A    between atoms: _222  and  _223
REMARK   90  A    between atoms: _229  and  _231
REMARK   91  A    between atoms: _231  and  _232
REMARK   92  A    between atoms: _231  and  _234
REMARK   93  A    between atoms: _234  and  _235
REMARK   94  A    between atoms: _238  and  _240
REMARK   95  A    between atoms: _240  and  _241
REMARK   96  A    between atoms: _240  and  _243
REMARK   97  A    between atoms: _243  and  _244
REMARK   98  A    between atoms: _247  and  _249
REMARK   99  A    between atoms: _249  and  _250
REMARK  100  A    between atoms: _249  and  _252
REMARK  101  A    between atoms: _252  and  _253
REMARK  102  A    between atoms: _256  and  _258
REMARK  103  A    between atoms: _258  and  _259
REMARK  104  A    between atoms: _261  and  _263
REMARK  105  A    between atoms: _263  and  _264
REMARK  106  A    between atoms: _263  and  _266
REMARK  107  A    between atoms: _266  and  _267
REMARK  108  A    between atoms: _272  and  _273
REMARK  109  A    between atoms: _275  and  _277
REMARK  110  A    between atoms: _277  and  _278
REMARK  111  A    between atoms: _277  and  _280
REMARK  112  A    between atoms: _280  and  _281
REMARK  113  A    between atoms: _284  and  _286
REMARK  114  A    between atoms: _286  and  _287
REMARK  115  A    between atoms: _286  and  _289
REMARK  116  A    between atoms: _289  and  _290
REMARK  117  A    between atoms: _290  and  _291
REMARK  118  A    between atoms: _293  and  _295
REMARK  119  A    between atoms: _295  and  _296
REMARK  120  A    between atoms: _295  and  _298
REMARK  121  A    between atoms: _298  and  _299
REMARK  122  A    between atoms: _299  and  _300
REMARK  123  A    between atoms: _302  and  _304
REMARK  124  A    between atoms: _304  and  _305
REMARK  125  A    between atoms: _304  and  _307
REMARK  126  A    between atoms: _310  and  _312
REMARK  127  A    between atoms: _312  and  _313
REMARK  128  A    between atoms: _312  and  _315
REMARK  129  A    between atoms: _315  and  _316
REMARK  130  A    between atoms: _316  and  _317
REMARK  131  A    between atoms: _317  and  _318
REMARK  132  A    between atoms: _327  and  _329
REMARK  133  A    between atoms: _329  and  _330
REMARK  134  A    between atoms: _329  and  _332
REMARK  135  A    between atoms: _332  and  _333
REMARK  136  A    between atoms: _333  and  _334
REMARK  137  A    between atoms: _336  and  _338
REMARK  138  A    between atoms: _338  and  _339
REMARK  139  A    between atoms: _338  and  _341
REMARK  140  A    between atoms: _341  and  _342
REMARK  141  A    between atoms: _342  and  _343
REMARK  142  A    between atoms: _343  and  _344
REMARK  143  A    between atoms: _344  and  _345
REMARK  144  A    between atoms: _349  and  _351
REMARK  145  A    between atoms: _351  and  _352
REMARK  146  A    between atoms: _354  and  _356
REMARK  147  A    between atoms: _356  and  _357
REMARK  148  A    between atoms: _356  and  _359
REMARK  149  A    between atoms: _359  and  _360
REMARK  150  A    between atoms: _360  and  _361
REMARK  151  A    between atoms: _361  and  MG_407
REMARK  152  A    between atoms: _363  and  _365
REMARK  153  A    between atoms: _365  and  _366
REMARK  154  A    between atoms: _365  and  _368
REMARK  155  A    between atoms: _368  and  _369
REMARK  156  A    between atoms: _372  and  _374
REMARK  157  A    between atoms: _374  and  _375
REMARK  158  A    between atoms: _374  and  _377
REMARK  159  A    between atoms: _377  and  _378
REMARK  160  A    between atoms: _380  and  _382
REMARK  161  A    between atoms: _382  and  _383
REMARK  162  A    between atoms: _382  and  _385
REMARK  163  A    between atoms: _385  and  _386
REMARK  164  A    between atoms: _389  and  _391
REMARK  165  A    between atoms: _391  and  _392
REMARK  166  A    between atoms: _391  and  _394
REMARK  167  A    between atoms: _394  and  _395
REMARK  168  A    between atoms: _395  and  _396
REMARK  169  A    between atoms: _399  and  _401
REMARK  170  A    between atoms: _401  and  _402
REMARK  171  A    between atoms: _401  and  _404
REMARK  172  A    between atoms: _404  and  _405
REMARK                            x       y       z     vdW  Elec       q    Type
REMARK                         _______ _______ _______ _____ _____    ______ ____
ROOT
ATOM      1  O   HOH     1      85.976  -3.966  11.090  0.00  0.00    +0.000 OA
ENDROOT
TORSDOF 0
REMARK  Name = ../refined-set-2016/1rql/1rql_pocket.pdb
REMARK  172 active torsions:
REMARK  status: ('A' for Active; 'I' for Inactive)
REMARK    1  A    between atoms: _1  and  _3
REMARK    2  A    between atoms: _3  and  _4
REMARK    3  A    between atoms: _3  and  _6
REMARK    4  A    between atoms: _6  and  _7
REMARK    5  A    between atoms: _13  and  _15
REMARK    6  A    between atoms: _15  and  _16
REMARK    7  A    between atoms: _15  and  _18
REMARK    8  A    between atoms: _18  and  _19
REMARK    9  A    between atoms: _22  and  _24
REMARK   10  A    between atoms: _24  and  _25
REMARK   11  A    between atoms: _24  and  _27
REMARK   12  A    between atoms: _27  and  _28
REMARK   13  A    between atoms: _38  and  _40
REMARK   14  A    between atoms: _40  and  _41
REMARK   15  A    between atoms: _41  and  _42
REMARK   16  A    between atoms: _41  and  _44
REMARK   17  A    between atoms: _42  and  MG_407
REMARK   18  A    between atoms: _44  and  _46
REMARK   19  A    between atoms: _46  and  _47
REMARK   20  A    between atoms: _49  and  _51
REMARK   21  A    between atoms: _51  and  _52
REMARK   22  A    between atoms: _51  and  _54
REMARK   23  A    between atoms: _54  and  _55
REMARK   24  A    between atoms: _58  and  _60
REMARK   25  A    between atoms: _60  and  _61
REMARK   26  A    between atoms: _60  and  _63
REMARK   27  A    between atoms: _63  and  _64
REMARK   28  A    between atoms: _67  and  _69
REMARK   29  A    between atoms: _69  and  _70
REMARK   30  A    between atoms: _69  and  _72
REMARK   31  A    between atoms: _75  and  _77
REMARK   32  A    between atoms: _77  and  _78
REMARK   33  A    between atoms: _77  and  _80
REMARK   34  A    between atoms: _80  and  _81
REMARK   35  A    between atoms: _84  and  _86
REMARK   36  A    between atoms: _86  and  _87
REMARK   37  A    between atoms: _86  and  _89
REMARK   38  A    between atoms: _91  and  _93
REMARK   39  A    between atoms: _93  and  _94
REMARK   40  A    between atoms: _93  and  _96
REMARK   41  A    between atoms: _96  and  _97
REMARK   42  A    between atoms: _103  and  _105
REMARK   43  A    between atoms: _105  and  _106
REMARK   44  A    between atoms: _110  and  _111
REMARK   45  A    between atoms: _116  and  _118
REMARK   46  A    between atoms: _118  and  _119
REMARK   47  A    between atoms: _118  and  _121
REMARK   48  A    between atoms: _121  and  _122
REMARK   49  A    between atoms: _125  and  _127
REMARK   50  A    between atoms: _127  and  _128
REMARK   51  A    between atoms: _127  and  _130
REMARK   52  A    between atoms: _130  and  _131
REMARK   53  A    between atoms: _137  and  _139
REMARK   54  A    between atoms: _139  and  _140
REMARK   55  A    between atoms: _139  and  _142
REMARK   56  A    between atoms: _142  and  _143
REMARK   57  A    between atoms: _143  and  _144
REMARK   58  A    between atoms: _144  and  _145
REMARK   59  A    between atoms: _155  and  _156
REMARK   60  A    between atoms: _161  and  _163
REMARK   61  A    between atoms: _163  and  _164
REMARK   62  A    between atoms: _163  and  _166
REMARK   63  A    between atoms: _166  and  _167
REMARK   64  A    between atoms: _167  and  _168
REMARK   65  A    between atoms: _170  and  _172
REMARK   66  A    between atoms: _172  and  _173
REMARK   67  A    between atoms: _175  and  _177
REMARK   68  A    between atoms: _177  and  _178
REMARK   69  A    between atoms: _177  and  _180
REMARK   70  A    between atoms: _180  and  _181
REMARK   71  A    between atoms: _184  and  _186
REMARK   72  A    between atoms: _186  and  _187
REMARK   73  A    between atoms: _186  and  _189
REMARK   74  A    between atoms: _189  and  _190
REMARK   75  A    between atoms: _193  and  _195
REMARK   76  A    between atoms: _195  and  _196
REMARK   77  A    between atoms: _195  and  _198
REMARK   78  A    between atoms: _198  and  _199
REMARK   79  A    between atoms: _199  and  _200
REMARK   80  A    between atoms: _200  and  _201
REMARK   81  A    between atoms: _201  and  _202
REMARK   82  A    between atoms: _206  and  _208
REMARK   83  A    between atoms: _208  and  _209
REMARK   84  A    between atoms: _208  and  _211
REMARK   85  A    between atoms: _211  and  _212
REMARK   86  A    between atoms: _217  and  _219
REMARK   87  A    between atoms: _219  and  _220
REMARK   88  A    between atoms: _219  and  _222
REMARK   89  A    between atoms: _222  and  _223
REMARK   90  A    between atoms: _229  and  _231
REMARK   91  A    between atoms: _231  and  _232
REMARK   92  A    between atoms: _231  and  _234
REMARK   93  A    between atoms: _234  and  _235
REMARK   94  A    between atoms: _238  and  _240
REMARK   95  A    between atoms: _240  and  _241
REMARK   96  A    between atoms: _240  and  _243
REMARK   97  A    between atoms: _243  and  _244
REMARK   98  A    between atoms: _247  and  _249
REMARK   99  A    between atoms: _249  and  _250
REMARK  100  A    between atoms: _249  and  _252
REMARK  101  A    between atoms: _252  and  _253
REMARK  102  A    between atoms: _256  and  _258
REMARK  103  A    between atoms: _258  and  _259
REMARK  104  A    between atoms: _261  and  _263
REMARK  105  A    between atoms: _263  and  _264
REMARK  106  A    between atoms: _263  and  _266
REMARK  107  A    between atoms: _266  and  _267
REMARK  108  A    between atoms: _272  and  _273
REMARK  109  A    between atoms: _275  and  _277
REMARK  110  A    between atoms: _277  and  _278
REMARK  111  A    between atoms: _277  and  _280
REMARK  112  A    between atoms: _280  and  _281
REMARK  113  A    between atoms: _284  and  _286
REMARK  114  A    between atoms: _286  and  _287
REMARK  115  A    between atoms: _286  and  _289
REMARK  116  A    between atoms: _289  and  _290
REMARK  117  A    between atoms: _290  and  _291
REMARK  118  A    between atoms: _293  and  _295
REMARK  119  A    between atoms: _295  and  _296
REMARK  120  A    between atoms: _295  and  _298
REMARK  121  A    between atoms: _298  and  _299
REMARK  122  A    between atoms: _299  and  _300
REMARK  123  A    between atoms: _302  and  _304
REMARK  124  A    between atoms: _304  and  _305
REMARK  125  A    between atoms: _304  and  _307
REMARK  126  A    between atoms: _310  and  _312
REMARK  127  A    between atoms: _312  and  _313
REMARK  128  A    between atoms: _312  and  _315
REMARK  129  A    between atoms: _315  and  _316
REMARK  130  A    between atoms: _316  and  _317
REMARK  131  A    between atoms: _317  and  _318
REMARK  132  A    between atoms: _327  and  _329
REMARK  133  A    between atoms: _329  and  _330
REMARK  134  A    between atoms: _329  and  _332
REMARK  135  A    between atoms: _332  and  _333
REMARK  136  A    between atoms: _333  and  _334
REMARK  137  A    between atoms: _336  and  _338
REMARK  138  A    between atoms: _338  and  _339
REMARK  139  A    between atoms: _338  and  _341
REMARK  140  A    between atoms: _341  and  _342
REMARK  141  A    between atoms: _342  and  _343
REMARK  142  A    between atoms: _343  and  _344
REMARK  143  A    between atoms: _344  and  _345
REMARK  144  A    between atoms: _349  and  _351
REMARK  145  A    between atoms: _351  and  _352
REMARK  146  A    between atoms: _354  and  _356
REMARK  147  A    between atoms: _356  and  _357
REMARK  148  A    between atoms: _356  and  _359
REMARK  149  A    between atoms: _359  and  _360
REMARK  150  A    between atoms: _360  and  _361
REMARK  151  A    between atoms: _361  and  MG_407
REMARK  152  A    between atoms: _363  and  _365
REMARK  153  A    between atoms: _365  and  _366
REMARK  154  A    between atoms: _365  and  _368
REMARK  155  A    between atoms: _368  and  _369
REMARK  156  A    between atoms: _372  and  _374
REMARK  157  A    between atoms: _374  and  _375
REMARK  158  A    between atoms: _374  and  _377
REMARK  159  A    between atoms: _377  and  _378
REMARK  160  A    between atoms: _380  and  _382
REMARK  161  A    between atoms: _382  and  _383
REMARK  162  A    between atoms: _382  and  _385
REMARK  163  A    between atoms: _385  and  _386
REMARK  164  A    between atoms: _389  and  _391
REMARK  165  A    between atoms: _391  and  _392
REMARK  166  A    between atoms: _391  and  _394
REMARK  167  A    between atoms: _394  and  _395
REMARK  168  A    between atoms: _395  and  _396
REMARK  169  A    between atoms: _399  and  _401
REMARK  170  A    between atoms: _401  and  _402
REMARK  171  A    between atoms: _401  and  _404
REMARK  172  A    between atoms: _404  and  _405
REMARK                            x       y       z     vdW  Elec       q    Type
REMARK                         _______ _______ _______ _____ _____    ______ ____
ROOT
ATOM      1  O   HOH     1      89.484 -11.422   5.999  0.00  0.00    +0.000 OA
ENDROOT
TORSDOF 0
REMARK  Name = ../refined-set-2016/1rql/1rql_pocket.pdb
REMARK  172 active torsions:
REMARK  status: ('A' for Active; 'I' for Inactive)
REMARK    1  A    between atoms: _1  and  _3
REMARK    2  A    between atoms: _3  and  _4
REMARK    3  A    between atoms: _3  and  _6
REMARK    4  A    between atoms: _6  and  _7
REMARK    5  A    between atoms: _13  and  _15
REMARK    6  A    between atoms: _15  and  _16
REMARK    7  A    between atoms: _15  and  _18
REMARK    8  A    between atoms: _18  and  _19
REMARK    9  A    between atoms: _22  and  _24
REMARK   10  A    between atoms: _24  and  _25
REMARK   11  A    between atoms: _24  and  _27
REMARK   12  A    between atoms: _27  and  _28
REMARK   13  A    between atoms: _38  and  _40
REMARK   14  A    between atoms: _40  and  _41
REMARK   15  A    between atoms: _41  and  _42
REMARK   16  A    between atoms: _41  and  _44
REMARK   17  A    between atoms: _42  and  MG_407
REMARK   18  A    between atoms: _44  and  _46
REMARK   19  A    between atoms: _46  and  _47
REMARK   20  A    between atoms: _49  and  _51
REMARK   21  A    between atoms: _51  and  _52
REMARK   22  A    between atoms: _51  and  _54
REMARK   23  A    between atoms: _54  and  _55
REMARK   24  A    between atoms: _58  and  _60
REMARK   25  A    between atoms: _60  and  _61
REMARK   26  A    between atoms: _60  and  _63
REMARK   27  A    between atoms: _63  and  _64
REMARK   28  A    between atoms: _67  and  _69
REMARK   29  A    between atoms: _69  and  _70
REMARK   30  A    between atoms: _69  and  _72
REMARK   31  A    between atoms: _75  and  _77
REMARK   32  A    between atoms: _77  and  _78
REMARK   33  A    between atoms: _77  and  _80
REMARK   34  A    between atoms: _80  and  _81
REMARK   35  A    between atoms: _84  and  _86
REMARK   36  A    between atoms: _86  and  _87
REMARK   37  A    between atoms: _86  and  _89
REMARK   38  A    between atoms: _91  and  _93
REMARK   39  A    between atoms: _93  and  _94
REMARK   40  A    between atoms: _93  and  _96
REMARK   41  A    between atoms: _96  and  _97
REMARK   42  A    between atoms: _103  and  _105
REMARK   43  A    between atoms: _105  and  _106
REMARK   44  A    between atoms: _110  and  _111
REMARK   45  A    between atoms: _116  and  _118
REMARK   46  A    between atoms: _118  and  _119
REMARK   47  A    between atoms: _118  and  _121
REMARK   48  A    between atoms: _121  and  _122
REMARK   49  A    between atoms: _125  and  _127
REMARK   50  A    between atoms: _127  and  _128
REMARK   51  A    between atoms: _127  and  _130
REMARK   52  A    between atoms: _130  and  _131
REMARK   53  A    between atoms: _137  and  _139
REMARK   54  A    between atoms: _139  and  _140
REMARK   55  A    between atoms: _139  and  _142
REMARK   56  A    between atoms: _142  and  _143
REMARK   57  A    between atoms: _143  and  _144
REMARK   58  A    between atoms: _144  and  _145
REMARK   59  A    between atoms: _155  and  _156
REMARK   60  A    between atoms: _161  and  _163
REMARK   61  A    between atoms: _163  and  _164
REMARK   62  A    between atoms: _163  and  _166
REMARK   63  A    between atoms: _166  and  _167
REMARK   64  A    between atoms: _167  and  _168
REMARK   65  A    between atoms: _170  and  _172
REMARK   66  A    between atoms: _172  and  _173
REMARK   67  A    between atoms: _175  and  _177
REMARK   68  A    between atoms: _177  and  _178
REMARK   69  A    between atoms: _177  and  _180
REMARK   70  A    between atoms: _180  and  _181
REMARK   71  A    between atoms: _184  and  _186
REMARK   72  A    between atoms: _186  and  _187
REMARK   73  A    between atoms: _186  and  _189
REMARK   74  A    between atoms: _189  and  _190
REMARK   75  A    between atoms: _193  and  _195
REMARK   76  A    between atoms: _195  and  _196
REMARK   77  A    between atoms: _195  and  _198
REMARK   78  A    between atoms: _198  and  _199
REMARK   79  A    between atoms: _199  and  _200
REMARK   80  A    between atoms: _200  and  _201
REMARK   81  A    between atoms: _201  and  _202
REMARK   82  A    between atoms: _206  and  _208
REMARK   83  A    between atoms: _208  and  _209
REMARK   84  A    between atoms: _208  and  _211
REMARK   85  A    between atoms: _211  and  _212
REMARK   86  A    between atoms: _217  and  _219
REMARK   87  A    between atoms: _219  and  _220
REMARK   88  A    between atoms: _219  and  _222
REMARK   89  A    between atoms: _222  and  _223
REMARK   90  A    between atoms: _229  and  _231
REMARK   91  A    between atoms: _231  and  _232
REMARK   92  A    between atoms: _231  and  _234
REMARK   93  A    between atoms: _234  and  _235
REMARK   94  A    between atoms: _238  and  _240
REMARK   95  A    between atoms: _240  and  _241
REMARK   96  A    between atoms: _240  and  _243
REMARK   97  A    between atoms: _243  and  _244
REMARK   98  A    between atoms: _247  and  _249
REMARK   99  A    between atoms: _249  and  _250
REMARK  100  A    between atoms: _249  and  _252
REMARK  101  A    between atoms: _252  and  _253
REMARK  102  A    between atoms: _256  and  _258
REMARK  103  A    between atoms: _258  and  _259
REMARK  104  A    between atoms: _261  and  _263
REMARK  105  A    between atoms: _263  and  _264
REMARK  106  A    between atoms: _263  and  _266
REMARK  107  A    between atoms: _266  and  _267
REMARK  108  A    between atoms: _272  and  _273
REMARK  109  A    between atoms: _275  and  _277
REMARK  110  A    between atoms: _277  and  _278
REMARK  111  A    between atoms: _277  and  _280
REMARK  112  A    between atoms: _280  and  _281
REMARK  113  A    between atoms: _284  and  _286
REMARK  114  A    between atoms: _286  and  _287
REMARK  115  A    between atoms: _286  and  _289
REMARK  116  A    between atoms: _289  and  _290
REMARK  117  A    between atoms: _290  and  _291
REMARK  118  A    between atoms: _293  and  _295
REMARK  119  A    between atoms: _295  and  _296
REMARK  120  A    between atoms: _295  and  _298
REMARK  121  A    between atoms: _298  and  _299
REMARK  122  A    between atoms: _299  and  _300
REMARK  123  A    between atoms: _302  and  _304
REMARK  124  A    between atoms: _304  and  _305
REMARK  125  A    between atoms: _304  and  _307
REMARK  126  A    between atoms: _310  and  _312
REMARK  127  A    between atoms: _312  and  _313
REMARK  128  A    between atoms: _312  and  _315
REMARK  129  A    between atoms: _315  and  _316
REMARK  130  A    between atoms: _316  and  _317
REMARK  131  A    between atoms: _317  and  _318
REMARK  132  A    between atoms: _327  and  _329
REMARK  133  A    between atoms: _329  and  _330
REMARK  134  A    between atoms: _329  and  _332
REMARK  135  A    between atoms: _332  and  _333
REMARK  136  A    between atoms: _333  and  _334
REMARK  137  A    between atoms: _336  and  _338
REMARK  138  A    between atoms: _338  and  _339
REMARK  139  A    between atoms: _338  and  _341
REMARK  140  A    between atoms: _341  and  _342
REMARK  141  A    between atoms: _342  and  _343
REMARK  142  A    between atoms: _343  and  _344
REMARK  143  A    between atoms: _344  and  _345
REMARK  144  A    between atoms: _349  and  _351
REMARK  145  A    between atoms: _351  and  _352
REMARK  146  A    between atoms: _354  and  _356
REMARK  147  A    between atoms: _356  and  _357
REMARK  148  A    between atoms: _356  and  _359
REMARK  149  A    between atoms: _359  and  _360
REMARK  150  A    between atoms: _360  and  _361
REMARK  151  A    between atoms: _361  and  MG_407
REMARK  152  A    between atoms: _363  and  _365
REMARK  153  A    between atoms: _365  and  _366
REMARK  154  A    between atoms: _365  and  _368
REMARK  155  A    between atoms: _368  and  _369
REMARK  156  A    between atoms: _372  and  _374
REMARK  157  A    between atoms: _374  and  _375
REMARK  158  A    between atoms: _374  and  _377
REMARK  159  A    between atoms: _377  and  _378
REMARK  160  A    between atoms: _380  and  _382
REMARK  161  A    between atoms: _382  and  _383
REMARK  162  A    between atoms: _382  and  _385
REMARK  163  A    between atoms: _385  and  _386
REMARK  164  A    between atoms: _389  and  _391
REMARK  165  A    between atoms: _391  and  _392
REMARK  166  A    between atoms: _391  and  _394
REMARK  167  A    between atoms: _394  and  _395
REMARK  168  A    between atoms: _395  and  _396
REMARK  169  A    between atoms: _399  and  _401
REMARK  170  A    between atoms: _401  and  _402
REMARK  171  A    between atoms: _401  and  _404
REMARK  172  A    between atoms: _404  and  _405
REMARK                            x       y       z     vdW  Elec       q    Type
REMARK                         _______ _______ _______ _____ _____    ______ ____
ROOT
ATOM      1  O   HOH     1      87.428  -1.652   4.984  0.00  0.00    +0.000 OA
ENDROOT
TORSDOF 0
