REMARK  Name = ../refined-set-2016/4xty/4xty_pocket.pdb
REMARK  239 active torsions:
REMARK  status: ('A' for Active; 'I' for Inactive)
REMARK    1  A    between atoms: _1  and  _3
REMARK    2  A    between atoms: _3  and  _4
REMARK    3  A    between atoms: _3  and  _6
REMARK    4  A    between atoms: _6  and  _7
REMARK    5  A    between atoms: _10  and  _12
REMARK    6  A    between atoms: _12  and  _13
REMARK    7  A    between atoms: _15  and  _17
REMARK    8  A    between atoms: _17  and  _18
REMARK    9  A    between atoms: _17  and  _20
REMARK   10  A    between atoms: _20  and  _21
REMARK   11  A    between atoms: _23  and  _25
REMARK   12  A    between atoms: _25  and  _26
REMARK   13  A    between atoms: _25  and  _28
REMARK   14  A    between atoms: _28  and  _29
REMARK   15  A    between atoms: _32  and  _34
REMARK   16  A    between atoms: _34  and  _35
REMARK   17  A    between atoms: _34  and  _37
REMARK   18  A    between atoms: _37  and  _38
REMARK   19  A    between atoms: _43  and  _45
REMARK   20  A    between atoms: _45  and  _46
REMARK   21  A    between atoms: _49  and  _51
REMARK   22  A    between atoms: _51  and  _52
REMARK   23  A    between atoms: _51  and  _54
REMARK   24  A    between atoms: _54  and  _55
REMARK   25  A    between atoms: _58  and  _60
REMARK   26  A    between atoms: _60  and  _61
REMARK   27  A    between atoms: _60  and  _63
REMARK   28  A    between atoms: _63  and  _64
REMARK   29  A    between atoms: _67  and  _69
REMARK   30  A    between atoms: _69  and  _70
REMARK   31  A    between atoms: _69  and  _72
REMARK   32  A    between atoms: _72  and  _73
REMARK   33  A    between atoms: _76  and  _78
REMARK   34  A    between atoms: _78  and  _79
REMARK   35  A    between atoms: _78  and  _81
REMARK   36  A    between atoms: _81  and  _82
REMARK   37  A    between atoms: _85  and  _87
REMARK   38  A    between atoms: _87  and  _88
REMARK   39  A    between atoms: _91  and  _93
REMARK   40  A    between atoms: _93  and  _94
REMARK   41  A    between atoms: _93  and  _96
REMARK   42  A    between atoms: _96  and  _97
REMARK   43  A    between atoms: _97  and  _98
REMARK   44  A    between atoms: _103  and  _105
REMARK   45  A    between atoms: _105  and  _106
REMARK   46  A    between atoms: _105  and  _108
REMARK   47  A    between atoms: _108  and  _109
REMARK   48  A    between atoms: _112  and  _114
REMARK   49  A    between atoms: _114  and  _115
REMARK   50  A    between atoms: _118  and  _120
REMARK   51  A    between atoms: _120  and  _121
REMARK   52  A    between atoms: _123  and  _125
REMARK   53  A    between atoms: _125  and  _126
REMARK   54  A    between atoms: _125  and  _128
REMARK   55  A    between atoms: _128  and  _129
REMARK   56  A    between atoms: _129  and  _130
REMARK   57  A    between atoms: _130  and  _131
REMARK   58  A    between atoms: _140  and  _142
REMARK   59  A    between atoms: _142  and  _143
REMARK   60  A    between atoms: _145  and  _147
REMARK   61  A    between atoms: _147  and  _148
REMARK   62  A    between atoms: _147  and  _150
REMARK   63  A    between atoms: _150  and  _151
REMARK   64  A    between atoms: _151  and  _152
REMARK   65  A    between atoms: _152  and  _153
REMARK   66  A    between atoms: _162  and  _164
REMARK   67  A    between atoms: _164  and  _165
REMARK   68  A    between atoms: _164  and  _167
REMARK   69  A    between atoms: _167  and  _168
REMARK   70  A    between atoms: _173  and  _175
REMARK   71  A    between atoms: _175  and  _176
REMARK   72  A    between atoms: _178  and  _180
REMARK   73  A    between atoms: _180  and  _181
REMARK   74  A    between atoms: _180  and  _183
REMARK   75  A    between atoms: _183  and  _184
REMARK   76  A    between atoms: _184  and  _185
REMARK   77  A    between atoms: _185  and  _186
REMARK   78  A    between atoms: _195  and  _197
REMARK   79  A    between atoms: _197  and  _198
REMARK   80  A    between atoms: _200  and  _202
REMARK   81  A    between atoms: _202  and  _203
REMARK   82  A    between atoms: _202  and  _205
REMARK   83  A    between atoms: _205  and  _206
REMARK   84  A    between atoms: _216  and  _218
REMARK   85  A    between atoms: _218  and  _219
REMARK   86  A    between atoms: _222  and  _224
REMARK   87  A    between atoms: _224  and  _225
REMARK   88  A    between atoms: _228  and  _230
REMARK   89  A    between atoms: _230  and  _231
REMARK   90  A    between atoms: _230  and  _233
REMARK   91  A    between atoms: _233  and  _234
REMARK   92  A    between atoms: _237  and  _239
REMARK   93  A    between atoms: _239  and  _240
REMARK   94  A    between atoms: _239  and  _242
REMARK   95  A    between atoms: _242  and  _243
REMARK   96  A    between atoms: _243  and  _244
REMARK   97  A    between atoms: _249  and  _251
REMARK   98  A    between atoms: _251  and  _252
REMARK   99  A    between atoms: _251  and  _254
REMARK  100  A    between atoms: _254  and  _255
REMARK  101  A    between atoms: _258  and  _260
REMARK  102  A    between atoms: _260  and  _261
REMARK  103  A    between atoms: _260  and  _263
REMARK  104  A    between atoms: _263  and  _264
REMARK  105  A    between atoms: _267  and  _269
REMARK  106  A    between atoms: _269  and  _270
REMARK  107  A    between atoms: _269  and  _272
REMARK  108  A    between atoms: _272  and  _273
REMARK  109  A    between atoms: _276  and  _278
REMARK  110  A    between atoms: _278  and  _279
REMARK  111  A    between atoms: _278  and  _281
REMARK  112  A    between atoms: _281  and  _282
REMARK  113  A    between atoms: _284  and  _286
REMARK  114  A    between atoms: _286  and  _287
REMARK  115  A    between atoms: _286  and  _289
REMARK  116  A    between atoms: _292  and  _294
REMARK  117  A    between atoms: _294  and  _295
REMARK  118  A    between atoms: _294  and  _297
REMARK  119  A    between atoms: _297  and  _298
REMARK  120  A    between atoms: _298  and  _299
REMARK  121  A    between atoms: _299  and  _300
REMARK  122  A    between atoms: _300  and  _301
REMARK  123  A    between atoms: _305  and  _307
REMARK  124  A    between atoms: _307  and  _308
REMARK  125  A    between atoms: _307  and  _310
REMARK  126  A    between atoms: _310  and  _311
REMARK  127  A    between atoms: _322  and  _323
REMARK  128  A    between atoms: _328  and  _330
REMARK  129  A    between atoms: _330  and  _331
REMARK  130  A    between atoms: _330  and  _333
REMARK  131  A    between atoms: _333  and  _334
REMARK  132  A    between atoms: _339  and  _341
REMARK  133  A    between atoms: _341  and  _342
REMARK  134  A    between atoms: _341  and  _344
REMARK  135  A    between atoms: _344  and  _345
REMARK  136  A    between atoms: _348  and  _350
REMARK  137  A    between atoms: _350  and  _351
REMARK  138  A    between atoms: _350  and  _353
REMARK  139  A    between atoms: _356  and  _358
REMARK  140  A    between atoms: _358  and  _359
REMARK  141  A    between atoms: _361  and  _363
REMARK  142  A    between atoms: _363  and  _364
REMARK  143  A    between atoms: _363  and  _366
REMARK  144  A    between atoms: _366  and  _367
REMARK  145  A    between atoms: _367  and  _368
REMARK  146  A    between atoms: _368  and  _369
REMARK  147  A    between atoms: _369  and  _370
REMARK  148  A    between atoms: _374  and  _376
REMARK  149  A    between atoms: _376  and  _377
REMARK  150  A    between atoms: _376  and  _379
REMARK  151  A    between atoms: _379  and  _380
REMARK  152  A    between atoms: _383  and  _385
REMARK  153  A    between atoms: _385  and  _386
REMARK  154  A    between atoms: _389  and  _391
REMARK  155  A    between atoms: _391  and  _392
REMARK  156  A    between atoms: _394  and  _396
REMARK  157  A    between atoms: _396  and  _397
REMARK  158  A    between atoms: _396  and  _399
REMARK  159  A    between atoms: _399  and  _400
REMARK  160  A    between atoms: _403  and  _405
REMARK  161  A    between atoms: _405  and  _406
REMARK  162  A    between atoms: _405  and  _408
REMARK  163  A    between atoms: _408  and  _409
REMARK  164  A    between atoms: _412  and  _414
REMARK  165  A    between atoms: _414  and  _415
REMARK  166  A    between atoms: _418  and  _420
REMARK  167  A    between atoms: _420  and  _421
REMARK  168  A    between atoms: _420  and  _423
REMARK  169  A    between atoms: _423  and  _424
REMARK  170  A    between atoms: _424  and  _425
REMARK  171  A    between atoms: _428  and  _430
REMARK  172  A    between atoms: _430  and  _431
REMARK  173  A    between atoms: _430  and  _433
REMARK  174  A    between atoms: _436  and  _438
REMARK  175  A    between atoms: _438  and  _439
REMARK  176  A    between atoms: _438  and  _441
REMARK  177  A    between atoms: _441  and  _442
REMARK  178  A    between atoms: _445  and  _447
REMARK  179  A    between atoms: _447  and  _448
REMARK  180  A    between atoms: _450  and  _452
REMARK  181  A    between atoms: _452  and  _453
REMARK  182  A    between atoms: _452  and  _455
REMARK  183  A    between atoms: _458  and  _460
REMARK  184  A    between atoms: _460  and  _461
REMARK  185  A    between atoms: _463  and  _465
REMARK  186  A    between atoms: _465  and  _466
REMARK  187  A    between atoms: _465  and  _468
REMARK  188  A    between atoms: _468  and  _469
REMARK  189  A    between atoms: _472  and  _474
REMARK  190  A    between atoms: _474  and  _475
REMARK  191  A    between atoms: _474  and  _477
REMARK  192  A    between atoms: _477  and  _478
REMARK  193  A    between atoms: _483  and  _485
REMARK  194  A    between atoms: _485  and  _486
REMARK  195  A    between atoms: _485  and  _488
REMARK  196  A    between atoms: _491  and  _493
REMARK  197  A    between atoms: _493  and  _494
REMARK  198  A    between atoms: _493  and  _496
REMARK  199  A    between atoms: _496  and  _497
REMARK  200  A    between atoms: _497  and  _498
REMARK  201  A    between atoms: _503  and  _505
REMARK  202  A    between atoms: _505  and  _506
REMARK  203  A    between atoms: _510  and  _511
REMARK  204  A    between atoms: _516  and  _518
REMARK  205  A    between atoms: _518  and  _519
REMARK  206  A    between atoms: _518  and  _521
REMARK  207  A    between atoms: _521  and  _522
REMARK  208  A    between atoms: _522  and  _523
REMARK  209  A    between atoms: _526  and  _528
REMARK  210  A    between atoms: _528  and  _529
REMARK  211  A    between atoms: _528  and  _531
REMARK  212  A    between atoms: _534  and  _536
REMARK  213  A    between atoms: _536  and  _537
REMARK  214  A    between atoms: _536  and  _539
REMARK  215  A    between atoms: _539  and  _540
REMARK  216  A    between atoms: _544  and  _545
REMARK  217  A    between atoms: _550  and  _552
REMARK  218  A    between atoms: _552  and  _553
REMARK  219  A    between atoms: _552  and  _555
REMARK  220  A    between atoms: _555  and  _556
REMARK  221  A    between atoms: _559  and  _561
REMARK  222  A    between atoms: _561  and  _562
REMARK  223  A    between atoms: _565  and  _567
REMARK  224  A    between atoms: _567  and  _568
REMARK  225  A    between atoms: _567  and  _570
REMARK  226  A    between atoms: _570  and  _571
REMARK  227  A    between atoms: _574  and  _576
REMARK  228  A    between atoms: _576  and  _577
REMARK  229  A    between atoms: _576  and  _579
REMARK  230  A    between atoms: _579  and  _580
REMARK  231  A    between atoms: _582  and  _584
REMARK  232  A    between atoms: _584  and  _585
REMARK  233  A    between atoms: _587  and  _589
REMARK  234  A    between atoms: _589  and  _590
REMARK  235  A    between atoms: _589  and  _592
REMARK  236  A    between atoms: _592  and  _593
REMARK  237  A    between atoms: _596  and  _598
REMARK  238  A    between atoms: _598  and  _599
REMARK  239  A    between atoms: _598  and  _601
REMARK                            x       y       z     vdW  Elec       q    Type
REMARK                         _______ _______ _______ _____ _____    ______ ____
ROOT
ATOM      1  C   THR A   4       1.636 -13.431  17.489  0.00  0.00    +0.243 C 
ATOM      2  O   THR A   4       1.955 -14.598  17.723  0.00  0.00    -0.273 OA
ATOM      3  N   ASN A   5       1.523 -12.949  16.247  0.00  0.00    -0.297 N 
ATOM      4  H   ASN A   5       1.228 -11.963  16.100  0.00  0.00    +0.150 HD
ENDROOT
BRANCH   3   5
ATOM      5  CA  ASN A   5       1.812 -13.801  15.095  0.00  0.00    +0.158 C 
BRANCH   5   6
ATOM      6  C   ASN A   5       3.283 -14.207  15.072  0.00  0.00    +0.241 C 
ATOM      7  N   ALA A   6       4.167 -13.234  15.282  0.00  0.00    -0.297 N 
ATOM      8  H   ALA A   6       3.834 -12.258  15.415  0.00  0.00    +0.150 HD
ATOM      9  O   ASN A   5       3.602 -15.384  14.892  0.00  0.00    -0.273 OA
BRANCH   7  10
ATOM     10  CA  ALA A   6       5.602 -13.521  15.328  0.00  0.00    +0.149 C 
ATOM     11  CB  ALA A   6       6.400 -12.241  15.537  0.00  0.00    +0.031 C 
BRANCH  10  12
ATOM     12  C   ALA A   6       5.920 -14.527  16.431  0.00  0.00    +0.241 C 
ATOM     13  N   ASP A   7       5.253 -14.373  17.569  0.00  0.00    -0.297 N 
ATOM     14  H   ASP A   7       4.525 -13.634  17.641  0.00  0.00    +0.150 HD
ATOM     15  O   ALA A   6       6.738 -15.431  16.243  0.00  0.00    -0.273 OA
BRANCH  13  16
ATOM     16  CA  ASP A   7       5.527 -15.226  18.718  0.00  0.00    +0.160 C 
BRANCH  16  17
ATOM     17  C   ASP A   7       5.170 -16.684  18.429  0.00  0.00    +0.241 C 
ATOM     18  O   ASP A   7       5.962 -17.576  18.729  0.00  0.00    -0.273 OA
ATOM     19  N   LEU A   8       3.989 -16.937  17.855  0.00  0.00    -0.298 N 
ATOM     20  H   LEU A   8       3.348 -16.153  17.619  0.00  0.00    +0.150 HD
BRANCH  19  21
ATOM     21  CA  LEU A   8       3.596 -18.323  17.557  0.00  0.00    +0.137 C 
BRANCH  21  22
ATOM     22  C   LEU A   8       4.450 -18.914  16.440  0.00  0.00    +0.227 C 
ATOM     23  O   LEU A   8       4.771 -20.113  16.449  0.00  0.00    -0.286 OA
ENDBRANCH  21  22
BRANCH  21  24
ATOM     24  CB  LEU A   8       2.112 -18.414  17.178  0.00  0.00    +0.028 C 
BRANCH  24  25
ATOM     25  CG  LEU A   8       1.123 -18.317  18.340  0.00  0.00    +0.002 C 
ATOM     26  CD2 LEU A   8       1.631 -19.086  19.555  0.00  0.00    +0.000 C 
ATOM     27  CD1 LEU A   8      -0.259 -18.819  17.905  0.00  0.00    +0.000 C 
ENDBRANCH  24  25
ENDBRANCH  21  24
ENDBRANCH  19  21
ENDBRANCH  16  17
BRANCH  16  28
ATOM     28  CB  ASP A   7       4.773 -14.741  19.952  0.00  0.00    +0.143 C 
BRANCH  28  29
ATOM     29  CG  ASP A   7       5.336 -13.452  20.523  0.00  0.00    +0.367 C 
ATOM     30  OD2 ASP A   7       4.682 -12.886  21.422  0.00  0.00    -0.246 OA
ATOM     31  OD1 ASP A   7       6.422 -13.007  20.091  0.00  0.00    -0.246 OA
ENDBRANCH  28  29
ENDBRANCH  16  28
ENDBRANCH  13  16
ENDBRANCH  10  12
ENDBRANCH   7  10
ENDBRANCH   5   6
BRANCH   5  32
ATOM     32  CB  ASN A   5       1.451 -13.103  13.781  0.00  0.00    +0.114 C 
BRANCH  32  33
ATOM     33  CG  ASN A   5       0.116 -13.539  13.245  0.00  0.00    +0.222 C 
ATOM     34  OD1 ASN A   5      -0.818 -13.789  14.003  0.00  0.00    -0.275 OA
ATOM     35  ND2 ASN A   5       0.015 -13.649  11.926  0.00  0.00    -0.329 N 
ATOM     36 HD21 ASN A   5      -0.881 -13.957  11.497  0.00  0.00    +0.145 HD
ATOM     37 HD22 ASN A   5       0.832 -13.427  11.322  0.00  0.00    +0.145 HD
ENDBRANCH  32  33
ENDBRANCH   5  32
ENDBRANCH   3   5
BRANCH   1  38
ATOM     38  CA  THR A   4       1.356 -12.474  18.635  0.00  0.00    +0.176 C 
BRANCH  38  40
ATOM     39  C   SER A   3       3.085 -10.893  18.010  0.00  0.00    +0.243 C 
ATOM     40  N   THR A   4       1.808 -11.124  18.299  0.00  0.00    -0.295 N 
ATOM     41  H   THR A   4       1.126 -10.339  18.286  0.00  0.00    +0.150 HD
ATOM     42  O   SER A   3       3.940 -11.773  18.044  0.00  0.00    -0.273 OA
BRANCH  39  43
ATOM     43  CA  SER A   3       3.461  -9.462  17.628  0.00  0.00    +0.178 C 
BRANCH  43  45
ATOM     44  C   GLY A   2       4.652  -7.630  18.718  0.00  0.00    +0.243 C 
ATOM     45  N   SER A   3       4.466  -8.941  18.556  0.00  0.00    -0.295 N 
ATOM     46  H   SER A   3       5.048  -9.608  19.101  0.00  0.00    +0.150 HD
ATOM     47  O   GLY A   2       4.000  -6.783  18.111  0.00  0.00    -0.273 OA
BRANCH  44  48
ATOM     48  CA  GLY A   2       5.705  -7.215  19.728  0.00  0.00    +0.176 C 
BRANCH  48  51
ATOM     49  C   THR A   1       4.527  -7.632  21.807  0.00  0.00    +0.241 C 
ATOM     50  O   THR A   1       3.760  -6.673  21.624  0.00  0.00    -0.274 OA
ATOM     51  N   GLY A   2       5.524  -7.929  20.981  0.00  0.00    -0.295 N 
ATOM     52  H   GLY A   2       6.188  -8.688  21.236  0.00  0.00    +0.150 HD
BRANCH  49  53
ATOM     53  CA  THR A   1       4.380  -8.520  23.030  0.00  0.00    +0.172 C 
BRANCH  53  54
ATOM     54  N   THR A   1       3.399  -7.936  23.920  0.00  0.00    -0.236 NA
ATOM     55  H   THR A   1       2.675  -7.294  23.540  0.00  0.00    +0.142 HD
ENDBRANCH  53  54
BRANCH  53  56
ATOM     56  CB  THR A   1       3.997  -9.965  22.614  0.00  0.00    +0.135 C 
ATOM     57  CG2 THR A   1       2.847  -9.947  21.614  0.00  0.00    +0.034 C 
BRANCH  56  58
ATOM     58  OG1 THR A   1       5.122 -10.623  22.019  0.00  0.00    -0.383 OA
ATOM     59  HG1 THR A   1       4.865 -11.543  21.758  0.00  0.00    +0.210 HD
ENDBRANCH  56  58
ENDBRANCH  53  56
ENDBRANCH  49  53
ENDBRANCH  48  51
ENDBRANCH  44  48
ENDBRANCH  43  45
BRANCH  43  60
ATOM     60  CB  SER A   3       3.983  -9.407  16.183  0.00  0.00    +0.166 C 
BRANCH  60  61
ATOM     61  OG  SER A   3       3.203 -10.213  15.308  0.00  0.00    -0.380 OA
ATOM     62  H   SER A   3       2.266  -9.892  15.313  0.00  0.00    +0.211 HD
ENDBRANCH  60  61
ENDBRANCH  43  60
ENDBRANCH  39  43
ENDBRANCH  38  40
BRANCH  38  63
ATOM     63  CB  THR A   4      -0.147 -12.525  18.980  0.00  0.00    +0.137 C 
ATOM     64  CG2 THR A   4      -0.435 -11.766  20.267  0.00  0.00    +0.034 C 
BRANCH  63  65
ATOM     65  OG1 THR A   4      -0.908 -11.958  17.907  0.00  0.00    -0.382 OA
ATOM     66  HG1 THR A   4      -0.743 -12.474  17.078  0.00  0.00    +0.210 HD
ENDBRANCH  63  65
ENDBRANCH  38  63
ENDBRANCH   1  38
TORSDOF 28
REMARK  Name = ../refined-set-2016/4xty/4xty_pocket.pdb
REMARK  239 active torsions:
REMARK  status: ('A' for Active; 'I' for Inactive)
REMARK    1  A    between atoms: _1  and  _3
REMARK    2  A    between atoms: _3  and  _4
REMARK    3  A    between atoms: _3  and  _6
REMARK    4  A    between atoms: _6  and  _7
REMARK    5  A    between atoms: _10  and  _12
REMARK    6  A    between atoms: _12  and  _13
REMARK    7  A    between atoms: _15  and  _17
REMARK    8  A    between atoms: _17  and  _18
REMARK    9  A    between atoms: _17  and  _20
REMARK   10  A    between atoms: _20  and  _21
REMARK   11  A    between atoms: _23  and  _25
REMARK   12  A    between atoms: _25  and  _26
REMARK   13  A    between atoms: _25  and  _28
REMARK   14  A    between atoms: _28  and  _29
REMARK   15  A    between atoms: _32  and  _34
REMARK   16  A    between atoms: _34  and  _35
REMARK   17  A    between atoms: _34  and  _37
REMARK   18  A    between atoms: _37  and  _38
REMARK   19  A    between atoms: _43  and  _45
REMARK   20  A    between atoms: _45  and  _46
REMARK   21  A    between atoms: _49  and  _51
REMARK   22  A    between atoms: _51  and  _52
REMARK   23  A    between atoms: _51  and  _54
REMARK   24  A    between atoms: _54  and  _55
REMARK   25  A    between atoms: _58  and  _60
REMARK   26  A    between atoms: _60  and  _61
REMARK   27  A    between atoms: _60  and  _63
REMARK   28  A    between atoms: _63  and  _64
REMARK   29  A    between atoms: _67  and  _69
REMARK   30  A    between atoms: _69  and  _70
REMARK   31  A    between atoms: _69  and  _72
REMARK   32  A    between atoms: _72  and  _73
REMARK   33  A    between atoms: _76  and  _78
REMARK   34  A    between atoms: _78  and  _79
REMARK   35  A    between atoms: _78  and  _81
REMARK   36  A    between atoms: _81  and  _82
REMARK   37  A    between atoms: _85  and  _87
REMARK   38  A    between atoms: _87  and  _88
REMARK   39  A    between atoms: _91  and  _93
REMARK   40  A    between atoms: _93  and  _94
REMARK   41  A    between atoms: _93  and  _96
REMARK   42  A    between atoms: _96  and  _97
REMARK   43  A    between atoms: _97  and  _98
REMARK   44  A    between atoms: _103  and  _105
REMARK   45  A    between atoms: _105  and  _106
REMARK   46  A    between atoms: _105  and  _108
REMARK   47  A    between atoms: _108  and  _109
REMARK   48  A    between atoms: _112  and  _114
REMARK   49  A    between atoms: _114  and  _115
REMARK   50  A    between atoms: _118  and  _120
REMARK   51  A    between atoms: _120  and  _121
REMARK   52  A    between atoms: _123  and  _125
REMARK   53  A    between atoms: _125  and  _126
REMARK   54  A    between atoms: _125  and  _128
REMARK   55  A    between atoms: _128  and  _129
REMARK   56  A    between atoms: _129  and  _130
REMARK   57  A    between atoms: _130  and  _131
REMARK   58  A    between atoms: _140  and  _142
REMARK   59  A    between atoms: _142  and  _143
REMARK   60  A    between atoms: _145  and  _147
REMARK   61  A    between atoms: _147  and  _148
REMARK   62  A    between atoms: _147  and  _150
REMARK   63  A    between atoms: _150  and  _151
REMARK   64  A    between atoms: _151  and  _152
REMARK   65  A    between atoms: _152  and  _153
REMARK   66  A    between atoms: _162  and  _164
REMARK   67  A    between atoms: _164  and  _165
REMARK   68  A    between atoms: _164  and  _167
REMARK   69  A    between atoms: _167  and  _168
REMARK   70  A    between atoms: _173  and  _175
REMARK   71  A    between atoms: _175  and  _176
REMARK   72  A    between atoms: _178  and  _180
REMARK   73  A    between atoms: _180  and  _181
REMARK   74  A    between atoms: _180  and  _183
REMARK   75  A    between atoms: _183  and  _184
REMARK   76  A    between atoms: _184  and  _185
REMARK   77  A    between atoms: _185  and  _186
REMARK   78  A    between atoms: _195  and  _197
REMARK   79  A    between atoms: _197  and  _198
REMARK   80  A    between atoms: _200  and  _202
REMARK   81  A    between atoms: _202  and  _203
REMARK   82  A    between atoms: _202  and  _205
REMARK   83  A    between atoms: _205  and  _206
REMARK   84  A    between atoms: _216  and  _218
REMARK   85  A    between atoms: _218  and  _219
REMARK   86  A    between atoms: _222  and  _224
REMARK   87  A    between atoms: _224  and  _225
REMARK   88  A    between atoms: _228  and  _230
REMARK   89  A    between atoms: _230  and  _231
REMARK   90  A    between atoms: _230  and  _233
REMARK   91  A    between atoms: _233  and  _234
REMARK   92  A    between atoms: _237  and  _239
REMARK   93  A    between atoms: _239  and  _240
REMARK   94  A    between atoms: _239  and  _242
REMARK   95  A    between atoms: _242  and  _243
REMARK   96  A    between atoms: _243  and  _244
REMARK   97  A    between atoms: _249  and  _251
REMARK   98  A    between atoms: _251  and  _252
REMARK   99  A    between atoms: _251  and  _254
REMARK  100  A    between atoms: _254  and  _255
REMARK  101  A    between atoms: _258  and  _260
REMARK  102  A    between atoms: _260  and  _261
REMARK  103  A    between atoms: _260  and  _263
REMARK  104  A    between atoms: _263  and  _264
REMARK  105  A    between atoms: _267  and  _269
REMARK  106  A    between atoms: _269  and  _270
REMARK  107  A    between atoms: _269  and  _272
REMARK  108  A    between atoms: _272  and  _273
REMARK  109  A    between atoms: _276  and  _278
REMARK  110  A    between atoms: _278  and  _279
REMARK  111  A    between atoms: _278  and  _281
REMARK  112  A    between atoms: _281  and  _282
REMARK  113  A    between atoms: _284  and  _286
REMARK  114  A    between atoms: _286  and  _287
REMARK  115  A    between atoms: _286  and  _289
REMARK  116  A    between atoms: _292  and  _294
REMARK  117  A    between atoms: _294  and  _295
REMARK  118  A    between atoms: _294  and  _297
REMARK  119  A    between atoms: _297  and  _298
REMARK  120  A    between atoms: _298  and  _299
REMARK  121  A    between atoms: _299  and  _300
REMARK  122  A    between atoms: _300  and  _301
REMARK  123  A    between atoms: _305  and  _307
REMARK  124  A    between atoms: _307  and  _308
REMARK  125  A    between atoms: _307  and  _310
REMARK  126  A    between atoms: _310  and  _311
REMARK  127  A    between atoms: _322  and  _323
REMARK  128  A    between atoms: _328  and  _330
REMARK  129  A    between atoms: _330  and  _331
REMARK  130  A    between atoms: _330  and  _333
REMARK  131  A    between atoms: _333  and  _334
REMARK  132  A    between atoms: _339  and  _341
REMARK  133  A    between atoms: _341  and  _342
REMARK  134  A    between atoms: _341  and  _344
REMARK  135  A    between atoms: _344  and  _345
REMARK  136  A    between atoms: _348  and  _350
REMARK  137  A    between atoms: _350  and  _351
REMARK  138  A    between atoms: _350  and  _353
REMARK  139  A    between atoms: _356  and  _358
REMARK  140  A    between atoms: _358  and  _359
REMARK  141  A    between atoms: _361  and  _363
REMARK  142  A    between atoms: _363  and  _364
REMARK  143  A    between atoms: _363  and  _366
REMARK  144  A    between atoms: _366  and  _367
REMARK  145  A    between atoms: _367  and  _368
REMARK  146  A    between atoms: _368  and  _369
REMARK  147  A    between atoms: _369  and  _370
REMARK  148  A    between atoms: _374  and  _376
REMARK  149  A    between atoms: _376  and  _377
REMARK  150  A    between atoms: _376  and  _379
REMARK  151  A    between atoms: _379  and  _380
REMARK  152  A    between atoms: _383  and  _385
REMARK  153  A    between atoms: _385  and  _386
REMARK  154  A    between atoms: _389  and  _391
REMARK  155  A    between atoms: _391  and  _392
REMARK  156  A    between atoms: _394  and  _396
REMARK  157  A    between atoms: _396  and  _397
REMARK  158  A    between atoms: _396  and  _399
REMARK  159  A    between atoms: _399  and  _400
REMARK  160  A    between atoms: _403  and  _405
REMARK  161  A    between atoms: _405  and  _406
REMARK  162  A    between atoms: _405  and  _408
REMARK  163  A    between atoms: _408  and  _409
REMARK  164  A    between atoms: _412  and  _414
REMARK  165  A    between atoms: _414  and  _415
REMARK  166  A    between atoms: _418  and  _420
REMARK  167  A    between atoms: _420  and  _421
REMARK  168  A    between atoms: _420  and  _423
REMARK  169  A    between atoms: _423  and  _424
REMARK  170  A    between atoms: _424  and  _425
REMARK  171  A    between atoms: _428  and  _430
REMARK  172  A    between atoms: _430  and  _431
REMARK  173  A    between atoms: _430  and  _433
REMARK  174  A    between atoms: _436  and  _438
REMARK  175  A    between atoms: _438  and  _439
REMARK  176  A    between atoms: _438  and  _441
REMARK  177  A    between atoms: _441  and  _442
REMARK  178  A    between atoms: _445  and  _447
REMARK  179  A    between atoms: _447  and  _448
REMARK  180  A    between atoms: _450  and  _452
REMARK  181  A    between atoms: _452  and  _453
REMARK  182  A    between atoms: _452  and  _455
REMARK  183  A    between atoms: _458  and  _460
REMARK  184  A    between atoms: _460  and  _461
REMARK  185  A    between atoms: _463  and  _465
REMARK  186  A    between atoms: _465  and  _466
REMARK  187  A    between atoms: _465  and  _468
REMARK  188  A    between atoms: _468  and  _469
REMARK  189  A    between atoms: _472  and  _474
REMARK  190  A    between atoms: _474  and  _475
REMARK  191  A    between atoms: _474  and  _477
REMARK  192  A    between atoms: _477  and  _478
REMARK  193  A    between atoms: _483  and  _485
REMARK  194  A    between atoms: _485  and  _486
REMARK  195  A    between atoms: _485  and  _488
REMARK  196  A    between atoms: _491  and  _493
REMARK  197  A    between atoms: _493  and  _494
REMARK  198  A    between atoms: _493  and  _496
REMARK  199  A    between atoms: _496  and  _497
REMARK  200  A    between atoms: _497  and  _498
REMARK  201  A    between atoms: _503  and  _505
REMARK  202  A    between atoms: _505  and  _506
REMARK  203  A    between atoms: _510  and  _511
REMARK  204  A    between atoms: _516  and  _518
REMARK  205  A    between atoms: _518  and  _519
REMARK  206  A    between atoms: _518  and  _521
REMARK  207  A    between atoms: _521  and  _522
REMARK  208  A    between atoms: _522  and  _523
REMARK  209  A    between atoms: _526  and  _528
REMARK  210  A    between atoms: _528  and  _529
REMARK  211  A    between atoms: _528  and  _531
REMARK  212  A    between atoms: _534  and  _536
REMARK  213  A    between atoms: _536  and  _537
REMARK  214  A    between atoms: _536  and  _539
REMARK  215  A    between atoms: _539  and  _540
REMARK  216  A    between atoms: _544  and  _545
REMARK  217  A    between atoms: _550  and  _552
REMARK  218  A    between atoms: _552  and  _553
REMARK  219  A    between atoms: _552  and  _555
REMARK  220  A    between atoms: _555  and  _556
REMARK  221  A    between atoms: _559  and  _561
REMARK  222  A    between atoms: _561  and  _562
REMARK  223  A    between atoms: _565  and  _567
REMARK  224  A    between atoms: _567  and  _568
REMARK  225  A    between atoms: _567  and  _570
REMARK  226  A    between atoms: _570  and  _571
REMARK  227  A    between atoms: _574  and  _576
REMARK  228  A    between atoms: _576  and  _577
REMARK  229  A    between atoms: _576  and  _579
REMARK  230  A    between atoms: _579  and  _580
REMARK  231  A    between atoms: _582  and  _584
REMARK  232  A    between atoms: _584  and  _585
REMARK  233  A    between atoms: _587  and  _589
REMARK  234  A    between atoms: _589  and  _590
REMARK  235  A    between atoms: _589  and  _592
REMARK  236  A    between atoms: _592  and  _593
REMARK  237  A    between atoms: _596  and  _598
REMARK  238  A    between atoms: _598  and  _599
REMARK  239  A    between atoms: _598  and  _601
REMARK                            x       y       z     vdW  Elec       q    Type
REMARK                         _______ _______ _______ _____ _____    ______ ____
ROOT
ATOM      1  CA  ILE A   2      -3.793 -13.415  23.358  0.00  0.00    +0.148 C 
ENDROOT
BRANCH   1   3
ATOM      2  C   LEU A   1      -2.753 -15.299  22.177  0.00  0.00    +0.238 C 
ATOM      3  N   ILE A   2      -3.100 -14.700  23.313  0.00  0.00    -0.297 N 
ATOM      4  H   ILE A   2      -2.867 -15.169  24.212  0.00  0.00    +0.150 HD
ATOM      5  O   LEU A   1      -3.011 -14.850  21.068  0.00  0.00    -0.274 OA
BRANCH   2   6
ATOM      6  CA  LEU A   1      -2.020 -16.622  22.305  0.00  0.00    +0.145 C 
BRANCH   6   7
ATOM      7  N   LEU A   1      -2.769 -17.652  21.600  0.00  0.00    -0.238 NA
ATOM      8  H   LEU A   1      -3.002 -17.513  20.596  0.00  0.00    +0.142 HD
ENDBRANCH   6   7
BRANCH   6   9
ATOM      9  CB  LEU A   1      -0.605 -16.506  21.744  0.00  0.00    +0.026 C 
BRANCH   9  10
ATOM     10  CG  LEU A   1       0.235 -15.321  22.223  0.00  0.00    +0.002 C 
ATOM     11  CD2 LEU A   1       0.476 -15.397  23.712  0.00  0.00    +0.000 C 
ATOM     12  CD1 LEU A   1       1.548 -15.257  21.452  0.00  0.00    +0.000 C 
ENDBRANCH   9  10
ENDBRANCH   6   9
ENDBRANCH   2   6
ENDBRANCH   1   3
BRANCH   1  13
ATOM     13  C   ILE A   2      -2.874 -12.397  24.016  0.00  0.00    +0.241 C 
ATOM     14  O   ILE A   2      -2.273 -12.700  25.045  0.00  0.00    -0.273 OA
ATOM     15  N   ALA A   3      -2.757 -11.210  23.430  0.00  0.00    -0.298 N 
ATOM     16  H   ALA A   3      -3.222 -11.036  22.516  0.00  0.00    +0.150 HD
BRANCH  15  17
ATOM     17  CA  ALA A   3      -1.978 -10.146  24.064  0.00  0.00    +0.137 C 
ATOM     18  CB  ALA A   3      -0.847  -9.666  23.142  0.00  0.00    +0.030 C 
BRANCH  17  19
ATOM     19  C   ALA A   3      -2.867  -8.978  24.440  0.00  0.00    +0.227 C 
ATOM     20  O   ALA A   3      -3.693  -8.541  23.646  0.00  0.00    -0.286 OA
ENDBRANCH  17  19
ENDBRANCH  15  17
ENDBRANCH   1  13
BRANCH   1  21
ATOM     21  CB  ILE A   2      -5.115 -13.496  24.170  0.00  0.00    +0.027 C 
ATOM     22  CG2 ILE A   2      -5.854 -12.156  24.137  0.00  0.00    +0.002 C 
BRANCH  21  23
ATOM     23  CG1 ILE A   2      -6.008 -14.616  23.625  0.00  0.00    +0.002 C 
ATOM     24  CD1 ILE A   2      -7.312 -14.816  24.442  0.00  0.00    +0.000 C 
ENDBRANCH  21  23
ENDBRANCH   1  21
TORSDOF 10
REMARK  Name = ../refined-set-2016/4xty/4xty_pocket.pdb
REMARK  239 active torsions:
REMARK  status: ('A' for Active; 'I' for Inactive)
REMARK    1  A    between atoms: _1  and  _3
REMARK    2  A    between atoms: _3  and  _4
REMARK    3  A    between atoms: _3  and  _6
REMARK    4  A    between atoms: _6  and  _7
REMARK    5  A    between atoms: _10  and  _12
REMARK    6  A    between atoms: _12  and  _13
REMARK    7  A    between atoms: _15  and  _17
REMARK    8  A    between atoms: _17  and  _18
REMARK    9  A    between atoms: _17  and  _20
REMARK   10  A    between atoms: _20  and  _21
REMARK   11  A    between atoms: _23  and  _25
REMARK   12  A    between atoms: _25  and  _26
REMARK   13  A    between atoms: _25  and  _28
REMARK   14  A    between atoms: _28  and  _29
REMARK   15  A    between atoms: _32  and  _34
REMARK   16  A    between atoms: _34  and  _35
REMARK   17  A    between atoms: _34  and  _37
REMARK   18  A    between atoms: _37  and  _38
REMARK   19  A    between atoms: _43  and  _45
REMARK   20  A    between atoms: _45  and  _46
REMARK   21  A    between atoms: _49  and  _51
REMARK   22  A    between atoms: _51  and  _52
REMARK   23  A    between atoms: _51  and  _54
REMARK   24  A    between atoms: _54  and  _55
REMARK   25  A    between atoms: _58  and  _60
REMARK   26  A    between atoms: _60  and  _61
REMARK   27  A    between atoms: _60  and  _63
REMARK   28  A    between atoms: _63  and  _64
REMARK   29  A    between atoms: _67  and  _69
REMARK   30  A    between atoms: _69  and  _70
REMARK   31  A    between atoms: _69  and  _72
REMARK   32  A    between atoms: _72  and  _73
REMARK   33  A    between atoms: _76  and  _78
REMARK   34  A    between atoms: _78  and  _79
REMARK   35  A    between atoms: _78  and  _81
REMARK   36  A    between atoms: _81  and  _82
REMARK   37  A    between atoms: _85  and  _87
REMARK   38  A    between atoms: _87  and  _88
REMARK   39  A    between atoms: _91  and  _93
REMARK   40  A    between atoms: _93  and  _94
REMARK   41  A    between atoms: _93  and  _96
REMARK   42  A    between atoms: _96  and  _97
REMARK   43  A    between atoms: _97  and  _98
REMARK   44  A    between atoms: _103  and  _105
REMARK   45  A    between atoms: _105  and  _106
REMARK   46  A    between atoms: _105  and  _108
REMARK   47  A    between atoms: _108  and  _109
REMARK   48  A    between atoms: _112  and  _114
REMARK   49  A    between atoms: _114  and  _115
REMARK   50  A    between atoms: _118  and  _120
REMARK   51  A    between atoms: _120  and  _121
REMARK   52  A    between atoms: _123  and  _125
REMARK   53  A    between atoms: _125  and  _126
REMARK   54  A    between atoms: _125  and  _128
REMARK   55  A    between atoms: _128  and  _129
REMARK   56  A    between atoms: _129  and  _130
REMARK   57  A    between atoms: _130  and  _131
REMARK   58  A    between atoms: _140  and  _142
REMARK   59  A    between atoms: _142  and  _143
REMARK   60  A    between atoms: _145  and  _147
REMARK   61  A    between atoms: _147  and  _148
REMARK   62  A    between atoms: _147  and  _150
REMARK   63  A    between atoms: _150  and  _151
REMARK   64  A    between atoms: _151  and  _152
REMARK   65  A    between atoms: _152  and  _153
REMARK   66  A    between atoms: _162  and  _164
REMARK   67  A    between atoms: _164  and  _165
REMARK   68  A    between atoms: _164  and  _167
REMARK   69  A    between atoms: _167  and  _168
REMARK   70  A    between atoms: _173  and  _175
REMARK   71  A    between atoms: _175  and  _176
REMARK   72  A    between atoms: _178  and  _180
REMARK   73  A    between atoms: _180  and  _181
REMARK   74  A    between atoms: _180  and  _183
REMARK   75  A    between atoms: _183  and  _184
REMARK   76  A    between atoms: _184  and  _185
REMARK   77  A    between atoms: _185  and  _186
REMARK   78  A    between atoms: _195  and  _197
REMARK   79  A    between atoms: _197  and  _198
REMARK   80  A    between atoms: _200  and  _202
REMARK   81  A    between atoms: _202  and  _203
REMARK   82  A    between atoms: _202  and  _205
REMARK   83  A    between atoms: _205  and  _206
REMARK   84  A    between atoms: _216  and  _218
REMARK   85  A    between atoms: _218  and  _219
REMARK   86  A    between atoms: _222  and  _224
REMARK   87  A    between atoms: _224  and  _225
REMARK   88  A    between atoms: _228  and  _230
REMARK   89  A    between atoms: _230  and  _231
REMARK   90  A    between atoms: _230  and  _233
REMARK   91  A    between atoms: _233  and  _234
REMARK   92  A    between atoms: _237  and  _239
REMARK   93  A    between atoms: _239  and  _240
REMARK   94  A    between atoms: _239  and  _242
REMARK   95  A    between atoms: _242  and  _243
REMARK   96  A    between atoms: _243  and  _244
REMARK   97  A    between atoms: _249  and  _251
REMARK   98  A    between atoms: _251  and  _252
REMARK   99  A    between atoms: _251  and  _254
REMARK  100  A    between atoms: _254  and  _255
REMARK  101  A    between atoms: _258  and  _260
REMARK  102  A    between atoms: _260  and  _261
REMARK  103  A    between atoms: _260  and  _263
REMARK  104  A    between atoms: _263  and  _264
REMARK  105  A    between atoms: _267  and  _269
REMARK  106  A    between atoms: _269  and  _270
REMARK  107  A    between atoms: _269  and  _272
REMARK  108  A    between atoms: _272  and  _273
REMARK  109  A    between atoms: _276  and  _278
REMARK  110  A    between atoms: _278  and  _279
REMARK  111  A    between atoms: _278  and  _281
REMARK  112  A    between atoms: _281  and  _282
REMARK  113  A    between atoms: _284  and  _286
REMARK  114  A    between atoms: _286  and  _287
REMARK  115  A    between atoms: _286  and  _289
REMARK  116  A    between atoms: _292  and  _294
REMARK  117  A    between atoms: _294  and  _295
REMARK  118  A    between atoms: _294  and  _297
REMARK  119  A    between atoms: _297  and  _298
REMARK  120  A    between atoms: _298  and  _299
REMARK  121  A    between atoms: _299  and  _300
REMARK  122  A    between atoms: _300  and  _301
REMARK  123  A    between atoms: _305  and  _307
REMARK  124  A    between atoms: _307  and  _308
REMARK  125  A    between atoms: _307  and  _310
REMARK  126  A    between atoms: _310  and  _311
REMARK  127  A    between atoms: _322  and  _323
REMARK  128  A    between atoms: _328  and  _330
REMARK  129  A    between atoms: _330  and  _331
REMARK  130  A    between atoms: _330  and  _333
REMARK  131  A    between atoms: _333  and  _334
REMARK  132  A    between atoms: _339  and  _341
REMARK  133  A    between atoms: _341  and  _342
REMARK  134  A    between atoms: _341  and  _344
REMARK  135  A    between atoms: _344  and  _345
REMARK  136  A    between atoms: _348  and  _350
REMARK  137  A    between atoms: _350  and  _351
REMARK  138  A    between atoms: _350  and  _353
REMARK  139  A    between atoms: _356  and  _358
REMARK  140  A    between atoms: _358  and  _359
REMARK  141  A    between atoms: _361  and  _363
REMARK  142  A    between atoms: _363  and  _364
REMARK  143  A    between atoms: _363  and  _366
REMARK  144  A    between atoms: _366  and  _367
REMARK  145  A    between atoms: _367  and  _368
REMARK  146  A    between atoms: _368  and  _369
REMARK  147  A    between atoms: _369  and  _370
REMARK  148  A    between atoms: _374  and  _376
REMARK  149  A    between atoms: _376  and  _377
REMARK  150  A    between atoms: _376  and  _379
REMARK  151  A    between atoms: _379  and  _380
REMARK  152  A    between atoms: _383  and  _385
REMARK  153  A    between atoms: _385  and  _386
REMARK  154  A    between atoms: _389  and  _391
REMARK  155  A    between atoms: _391  and  _392
REMARK  156  A    between atoms: _394  and  _396
REMARK  157  A    between atoms: _396  and  _397
REMARK  158  A    between atoms: _396  and  _399
REMARK  159  A    between atoms: _399  and  _400
REMARK  160  A    between atoms: _403  and  _405
REMARK  161  A    between atoms: _405  and  _406
REMARK  162  A    between atoms: _405  and  _408
REMARK  163  A    between atoms: _408  and  _409
REMARK  164  A    between atoms: _412  and  _414
REMARK  165  A    between atoms: _414  and  _415
REMARK  166  A    between atoms: _418  and  _420
REMARK  167  A    between atoms: _420  and  _421
REMARK  168  A    between atoms: _420  and  _423
REMARK  169  A    between atoms: _423  and  _424
REMARK  170  A    between atoms: _424  and  _425
REMARK  171  A    between atoms: _428  and  _430
REMARK  172  A    between atoms: _430  and  _431
REMARK  173  A    between atoms: _430  and  _433
REMARK  174  A    between atoms: _436  and  _438
REMARK  175  A    between atoms: _438  and  _439
REMARK  176  A    between atoms: _438  and  _441
REMARK  177  A    between atoms: _441  and  _442
REMARK  178  A    between atoms: _445  and  _447
REMARK  179  A    between atoms: _447  and  _448
REMARK  180  A    between atoms: _450  and  _452
REMARK  181  A    between atoms: _452  and  _453
REMARK  182  A    between atoms: _452  and  _455
REMARK  183  A    between atoms: _458  and  _460
REMARK  184  A    between atoms: _460  and  _461
REMARK  185  A    between atoms: _463  and  _465
REMARK  186  A    between atoms: _465  and  _466
REMARK  187  A    between atoms: _465  and  _468
REMARK  188  A    between atoms: _468  and  _469
REMARK  189  A    between atoms: _472  and  _474
REMARK  190  A    between atoms: _474  and  _475
REMARK  191  A    between atoms: _474  and  _477
REMARK  192  A    between atoms: _477  and  _478
REMARK  193  A    between atoms: _483  and  _485
REMARK  194  A    between atoms: _485  and  _486
REMARK  195  A    between atoms: _485  and  _488
REMARK  196  A    between atoms: _491  and  _493
REMARK  197  A    between atoms: _493  and  _494
REMARK  198  A    between atoms: _493  and  _496
REMARK  199  A    between atoms: _496  and  _497
REMARK  200  A    between atoms: _497  and  _498
REMARK  201  A    between atoms: _503  and  _505
REMARK  202  A    between atoms: _505  and  _506
REMARK  203  A    between atoms: _510  and  _511
REMARK  204  A    between atoms: _516  and  _518
REMARK  205  A    between atoms: _518  and  _519
REMARK  206  A    between atoms: _518  and  _521
REMARK  207  A    between atoms: _521  and  _522
REMARK  208  A    between atoms: _522  and  _523
REMARK  209  A    between atoms: _526  and  _528
REMARK  210  A    between atoms: _528  and  _529
REMARK  211  A    between atoms: _528  and  _531
REMARK  212  A    between atoms: _534  and  _536
REMARK  213  A    between atoms: _536  and  _537
REMARK  214  A    between atoms: _536  and  _539
REMARK  215  A    between atoms: _539  and  _540
REMARK  216  A    between atoms: _544  and  _545
REMARK  217  A    between atoms: _550  and  _552
REMARK  218  A    between atoms: _552  and  _553
REMARK  219  A    between atoms: _552  and  _555
REMARK  220  A    between atoms: _555  and  _556
REMARK  221  A    between atoms: _559  and  _561
REMARK  222  A    between atoms: _561  and  _562
REMARK  223  A    between atoms: _565  and  _567
REMARK  224  A    between atoms: _567  and  _568
REMARK  225  A    between atoms: _567  and  _570
REMARK  226  A    between atoms: _570  and  _571
REMARK  227  A    between atoms: _574  and  _576
REMARK  228  A    between atoms: _576  and  _577
REMARK  229  A    between atoms: _576  and  _579
REMARK  230  A    between atoms: _579  and  _580
REMARK  231  A    between atoms: _582  and  _584
REMARK  232  A    between atoms: _584  and  _585
REMARK  233  A    between atoms: _587  and  _589
REMARK  234  A    between atoms: _589  and  _590
REMARK  235  A    between atoms: _589  and  _592
REMARK  236  A    between atoms: _592  and  _593
REMARK  237  A    between atoms: _596  and  _598
REMARK  238  A    between atoms: _598  and  _599
REMARK  239  A    between atoms: _598  and  _601
REMARK                            x       y       z     vdW  Elec       q    Type
REMARK                         _______ _______ _______ _____ _____    ______ ____
ROOT
ATOM      1  C   ARG A   7       0.566  -7.012   4.590  0.00  0.00    +0.241 C 
ATOM      2  O   ARG A   7       0.722  -5.789   4.695  0.00  0.00    -0.273 OA
ATOM      3  N   HIS A   8       1.311  -7.815   3.825  0.00  0.00    -0.297 N 
ATOM      4  H   HIS A   8       1.066  -8.826   3.828  0.00  0.00    +0.150 HD
ENDROOT
BRANCH   3   5
ATOM      5  CA  HIS A   8       2.440  -7.412   2.982  0.00  0.00    +0.155 C 
BRANCH   5   6
ATOM      6  C   HIS A   8       3.226  -6.203   3.475  0.00  0.00    +0.241 C 
ATOM      7  N   GLY A   9       3.785  -6.340   4.671  0.00  0.00    -0.295 N 
ATOM      8  H   GLY A   9       3.524  -7.155   5.261  0.00  0.00    +0.150 HD
ATOM      9  O   HIS A   8       3.326  -5.179   2.794  0.00  0.00    -0.273 OA
BRANCH   7  10
ATOM     10  CA  GLY A   9       4.749  -5.385   5.176  0.00  0.00    +0.176 C 
BRANCH  10  11
ATOM     11  C   GLY A   9       4.172  -4.247   5.982  0.00  0.00    +0.243 C 
ATOM     12  O   GLY A   9       4.916  -3.454   6.553  0.00  0.00    -0.273 OA
ATOM     13  N   ARG A  10       2.851  -4.152   6.046  0.00  0.00    -0.297 N 
ATOM     14  H   ARG A  10       2.247  -4.868   5.594  0.00  0.00    +0.150 HD
BRANCH  13  15
ATOM     15  CA  ARG A  10       2.264  -3.036   6.755  0.00  0.00    +0.149 C 
BRANCH  15  16
ATOM     16  C   ARG A  10       2.190  -3.332   8.242  0.00  0.00    +0.241 C 
ATOM     17  N   GLY A  11       1.798  -2.327   9.015  0.00  0.00    -0.295 N 
ATOM     18  H   GLY A  11       1.524  -1.428   8.571  0.00  0.00    +0.150 HD
ATOM     19  O   ARG A  10       2.510  -4.436   8.676  0.00  0.00    -0.273 OA
BRANCH  17  20
ATOM     20  CA  GLY A  11       1.740  -2.443  10.460  0.00  0.00    +0.176 C 
BRANCH  20  21
ATOM     21  C   GLY A  11       0.328  -2.636  10.984  0.00  0.00    +0.243 C 
ATOM     22  N   TRP A  12       0.223  -2.887  12.284  0.00  0.00    -0.297 N 
ATOM     23  H   TRP A  12       1.088  -3.077  12.830  0.00  0.00    +0.150 HD
ATOM     24  O   GLY A  11      -0.639  -2.571  10.232  0.00  0.00    -0.273 OA
BRANCH  22  25
ATOM     25  CA  TRP A  12      -1.069  -2.906  12.977  0.00  0.00    +0.153 C 
BRANCH  25  26
ATOM     26  C   TRP A  12      -0.874  -2.175  14.277  0.00  0.00    +0.241 C 
ATOM     27  O   TRP A  12       0.030  -2.505  15.041  0.00  0.00    -0.273 OA
ATOM     28  N   ALA A  13      -1.710  -1.175  14.525  0.00  0.00    -0.297 N 
ATOM     29  H   ALA A  13      -2.492  -0.993  13.864  0.00  0.00    +0.150 HD
BRANCH  28  30
ATOM     30  CA  ALA A  13      -1.559  -0.322  15.705  0.00  0.00    +0.149 C 
ATOM     31  CB  ALA A  13      -1.749   1.138  15.333  0.00  0.00    +0.031 C 
BRANCH  30  32
ATOM     32  C   ALA A  13      -2.534  -0.714  16.797  0.00  0.00    +0.241 C 
ATOM     33  N   ALA A  14      -2.087  -0.588  18.041  0.00  0.00    -0.297 N 
ATOM     34  H   ALA A  14      -1.119  -0.243  18.203  0.00  0.00    +0.150 HD
ATOM     35  O   ALA A  13      -3.671  -1.123  16.524  0.00  0.00    -0.273 OA
BRANCH  33  36
ATOM     36  CA  ALA A  14      -2.923  -0.922  19.180  0.00  0.00    +0.149 C 
ATOM     37  CB  ALA A  14      -2.839  -2.442  19.492  0.00  0.00    +0.031 C 
BRANCH  36  38
ATOM     38  C   ALA A  14      -2.514  -0.125  20.399  0.00  0.00    +0.241 C 
ATOM     39  N   THR A  15      -3.446   0.039  21.329  0.00  0.00    -0.296 N 
ATOM     40  H   THR A  15      -4.441  -0.146  21.092  0.00  0.00    +0.150 HD
ATOM     41  O   ALA A  14      -1.374   0.339  20.492  0.00  0.00    -0.273 OA
BRANCH  39  42
ATOM     42  CA  THR A  15      -3.100   0.476  22.683  0.00  0.00    +0.164 C 
BRANCH  42  43
ATOM     43  C   THR A  15      -3.646  -0.555  23.648  0.00  0.00    +0.229 C 
ATOM     44  O   THR A  15      -4.523  -1.346  23.283  0.00  0.00    -0.286 OA
ENDBRANCH  42  43
BRANCH  42  45
ATOM     45  CB  THR A  15      -3.661   1.879  23.054  0.00  0.00    +0.136 C 
ATOM     46  CG2 THR A  15      -3.228   2.933  22.044  0.00  0.00    +0.034 C 
BRANCH  45  47
ATOM     47  OG1 THR A  15      -5.091   1.838  23.146  0.00  0.00    -0.382 OA
ATOM     48  HG1 THR A  15      -5.431   2.737  23.382  0.00  0.00    +0.210 HD
ENDBRANCH  45  47
ENDBRANCH  42  45
ENDBRANCH  39  42
ENDBRANCH  36  38
ENDBRANCH  33  36
ENDBRANCH  30  32
ENDBRANCH  28  30
ENDBRANCH  25  26
BRANCH  25  49
ATOM     49  CB  TRP A  12      -1.556  -4.334  13.236  0.00  0.00    +0.057 C 
BRANCH  49  50
ATOM     50  CG  TRP A  12      -2.955  -4.393  13.772  0.00  0.00    -0.002 A 
ATOM     51  CD1 TRP A  12      -3.337  -4.648  15.063  0.00  0.00    +0.068 A 
ATOM     52  NE1 TRP A  12      -4.707  -4.619  15.161  0.00  0.00    -0.352 N 
ATOM     53  HE1 TRP A  12      -5.255  -4.783  16.030  0.00  0.00    +0.166 HD
ATOM     54  CE2 TRP A  12      -5.234  -4.339  13.928  0.00  0.00    +0.056 A 
ATOM     55  CZ2 TRP A  12      -6.563  -4.202  13.527  0.00  0.00    +0.017 A 
ATOM     56  CH2 TRP A  12      -6.796  -3.914  12.200  0.00  0.00    +0.001 A 
ATOM     57  CZ3 TRP A  12      -5.754  -3.766  11.292  0.00  0.00    +0.000 A 
ATOM     58  CE3 TRP A  12      -4.429  -3.885  11.690  0.00  0.00    +0.001 A 
ATOM     59  CD2 TRP A  12      -4.157  -4.181  13.032  0.00  0.00    +0.013 A 
ENDBRANCH  49  50
ENDBRANCH  25  49
ENDBRANCH  22  25
ENDBRANCH  20  21
ENDBRANCH  17  20
ENDBRANCH  15  16
BRANCH  15  60
ATOM     60  CB  ARG A  10       0.893  -2.697   6.173  0.00  0.00    +0.033 C 
BRANCH  60  61
ATOM     61  CG  ARG A  10       1.036  -2.138   4.764  0.00  0.00    +0.045 C 
BRANCH  61  62
ATOM     62  CD  ARG A  10      -0.213  -1.467   4.287  0.00  0.00    +0.174 C 
BRANCH  62  63
ATOM     63  NE  ARG A  10      -1.260  -2.447   4.087  0.00  0.00    -0.265 N 
ATOM     64  HE  ARG A  10      -1.392  -3.175   4.818  0.00  0.00    +0.259 HD
ATOM     65  CZ  ARG A  10      -2.062  -2.476   3.031  0.00  0.00    +0.342 C 
ATOM     66  NH2 ARG A  10      -2.992  -3.417   2.939  0.00  0.00    -0.292 N 
ATOM     67 HH21 ARG A  10      -3.090  -4.127   3.693  0.00  0.00    +0.255 HD
ATOM     68 HH22 ARG A  10      -3.624  -3.445   2.113  0.00  0.00    +0.255 HD
ATOM     69  NH1 ARG A  10      -1.931  -1.576   2.067  0.00  0.00    -0.292 N 
ATOM     70 HH11 ARG A  10      -1.197  -0.843   2.136  0.00  0.00    +0.255 HD
ATOM     71 HH12 ARG A  10      -2.562  -1.603   1.241  0.00  0.00    +0.255 HD
ENDBRANCH  62  63
ENDBRANCH  61  62
ENDBRANCH  60  61
ENDBRANCH  15  60
ENDBRANCH  13  15
ENDBRANCH  10  11
ENDBRANCH   7  10
ENDBRANCH   5   6
BRANCH   5  72
ATOM     72  CB  HIS A   8       1.966  -7.175   1.542  0.00  0.00    +0.076 C 
BRANCH  72  73
ATOM     73  CG  HIS A   8       0.793  -6.254   1.419  0.00  0.00    +0.082 A 
ATOM     74  CD2 HIS A   8       0.710  -4.904   1.453  0.00  0.00    +0.115 A 
ATOM     75  NE2 HIS A   8      -0.611  -4.573   1.268  0.00  0.00    -0.221 NA
ATOM     76  CE1 HIS A   8      -1.313  -5.682   1.113  0.00  0.00    +0.199 A 
ATOM     77  ND1 HIS A   8      -0.489  -6.710   1.193  0.00  0.00    -0.227 NA
ENDBRANCH  72  73
ENDBRANCH   5  72
ENDBRANCH   3   5
BRANCH   1  78
ATOM     78  CA  ARG A   7      -0.531  -7.734   5.368  0.00  0.00    +0.149 C 
BRANCH  78  81
ATOM     79  C   GLY A   6      -0.029  -6.951   7.592  0.00  0.00    +0.243 C 
ATOM     80  O   GLY A   6       1.074  -7.504   7.570  0.00  0.00    -0.273 OA
ATOM     81  N   ARG A   7      -0.882  -7.019   6.577  0.00  0.00    -0.297 N 
ATOM     82  H   ARG A   7      -1.810  -6.555   6.651  0.00  0.00    +0.150 HD
BRANCH  79  83
ATOM     83  CA  GLY A   6      -0.476  -6.155   8.801  0.00  0.00    +0.176 C 
BRANCH  83  86
ATOM     84  C   ARG A   5       0.654  -6.751  10.857  0.00  0.00    +0.241 C 
ATOM     85  O   ARG A   5      -0.302  -7.423  11.268  0.00  0.00    -0.273 OA
ATOM     86  N   GLY A   6       0.620  -6.033   9.743  0.00  0.00    -0.295 N 
ATOM     87  H   GLY A   6       1.395  -5.369   9.541  0.00  0.00    +0.150 HD
BRANCH  84  88
ATOM     88  CA  ARG A   5       1.975  -6.725  11.605  0.00  0.00    +0.149 C 
BRANCH  88  91
ATOM     89  C   GLY A   4       2.142  -5.481  13.684  0.00  0.00    +0.243 C 
ATOM     90  O   GLY A   4       2.668  -4.502  13.133  0.00  0.00    -0.273 OA
ATOM     91  N   ARG A   5       1.762  -6.568  13.032  0.00  0.00    -0.297 N 
ATOM     92  H   ARG A   5       1.296  -7.334  13.559  0.00  0.00    +0.150 HD
BRANCH  89  93
ATOM     93  CA  GLY A   4       1.896  -5.497  15.174  0.00  0.00    +0.176 C 
BRANCH  93  95
ATOM     94  C   ALA A   3       4.168  -4.956  15.843  0.00  0.00    +0.241 C 
ATOM     95  N   GLY A   4       2.864  -4.679  15.887  0.00  0.00    -0.295 N 
ATOM     96  H   GLY A   4       2.534  -3.863  16.441  0.00  0.00    +0.150 HD
ATOM     97  O   ALA A   3       4.640  -5.891  15.169  0.00  0.00    -0.273 OA
BRANCH  94  98
ATOM     98  CA  ALA A   3       5.052  -4.079  16.728  0.00  0.00    +0.149 C 
ATOM     99  CB  ALA A   3       6.500  -4.605  16.751  0.00  0.00    +0.031 C 
BRANCH  98 102
ATOM    100  C   THR A   2       4.412  -2.897  18.779  0.00  0.00    +0.243 C 
ATOM    101  O   THR A   2       4.842  -1.815  18.359  0.00  0.00    -0.273 OA
ATOM    102  N   ALA A   3       4.493  -4.029  18.080  0.00  0.00    -0.297 N 
ATOM    103  H   ALA A   3       4.146  -4.910  18.511  0.00  0.00    +0.150 HD
BRANCH 100 104
ATOM    104  CA  THR A   2       3.766  -2.970  20.165  0.00  0.00    +0.176 C 
BRANCH 104 106
ATOM    105  C   GLN A   1       1.665  -4.167  20.393  0.00  0.00    +0.238 C 
ATOM    106  N   THR A   2       2.998  -4.191  20.443  0.00  0.00    -0.295 N 
ATOM    107  H   THR A   2       3.494  -5.074  20.679  0.00  0.00    +0.150 HD
ATOM    108  O   GLN A   1       1.024  -3.224  19.893  0.00  0.00    -0.274 OA
BRANCH 105 109
ATOM    109  CA  GLN A   1       0.930  -5.354  21.010  0.00  0.00    +0.145 C 
BRANCH 109 110
ATOM    110  N   GLN A   1       0.048  -4.867  22.056  0.00  0.00    -0.238 NA
ATOM    111  H   GLN A   1      -0.505  -4.001  21.893  0.00  0.00    +0.142 HD
ENDBRANCH 109 110
BRANCH 109 112
ATOM    112  CB  GLN A   1       0.127  -6.115  19.969  0.00  0.00    +0.036 C 
BRANCH 112 113
ATOM    113  CG  GLN A   1       0.970  -6.723  18.880  0.00  0.00    +0.087 C 
BRANCH 113 114
ATOM    114  CD  GLN A   1       0.127  -7.524  17.917  0.00  0.00    +0.219 C 
ATOM    115  OE1 GLN A   1       0.161  -8.758  17.915  0.00  0.00    -0.275 OA
ATOM    116  NE2 GLN A   1      -0.644  -6.820  17.091  0.00  0.00    -0.329 N 
ATOM    117 HE21 GLN A   1      -0.637  -5.781  17.132  0.00  0.00    +0.145 HD
ATOM    118 HE22 GLN A   1      -1.253  -7.309  16.405  0.00  0.00    +0.145 HD
ENDBRANCH 113 114
ENDBRANCH 112 113
ENDBRANCH 109 112
ENDBRANCH 105 109
ENDBRANCH 104 106
BRANCH 104 119
ATOM    119  CB  THR A   2       4.881  -2.761  21.222  0.00  0.00    +0.137 C 
ATOM    120  CG2 THR A   2       4.287  -2.627  22.617  0.00  0.00    +0.034 C 
BRANCH 119 121
ATOM    121  OG1 THR A   2       5.774  -3.877  21.197  0.00  0.00    -0.382 OA
ATOM    122  HG1 THR A   2       6.180  -3.953  20.297  0.00  0.00    +0.210 HD
ENDBRANCH 119 121
ENDBRANCH 104 119
ENDBRANCH 100 104
ENDBRANCH  98 102
ENDBRANCH  94  98
ENDBRANCH  93  95
ENDBRANCH  89  93
ENDBRANCH  88  91
BRANCH  88 123
ATOM    123  CB  ARG A   5       2.762  -8.010  11.330  0.00  0.00    +0.033 C 
BRANCH 123 124
ATOM    124  CG  ARG A   5       3.767  -8.301  12.433  0.00  0.00    +0.045 C 
BRANCH 124 125
ATOM    125  CD  ARG A   5       5.043  -8.934  11.931  0.00  0.00    +0.174 C 
BRANCH 125 126
ATOM    126  NE  ARG A   5       4.888 -10.349  11.625  0.00  0.00    -0.265 N 
ATOM    127  CZ  ARG A   5       5.841 -11.254  11.823  0.00  0.00    +0.342 C 
ATOM    128  NH2 ARG A   5       7.008 -10.891  12.340  0.00  0.00    -0.292 N 
ATOM    129 HH21 ARG A   5       7.179  -9.896  12.591  0.00  0.00    +0.255 HD
ATOM    130 HH22 ARG A   5       7.752 -11.601  12.494  0.00  0.00    +0.255 HD
ATOM    131  NH1 ARG A   5       5.627 -12.523  11.507  0.00  0.00    -0.292 N 
ATOM    132 HH11 ARG A   5       6.373 -13.231  11.662  0.00  0.00    +0.255 HD
ATOM    133 HH12 ARG A   5       4.713 -12.811  11.104  0.00  0.00    +0.255 HD
ATOM    134  HE  ARG A   5       3.981 -10.669  11.229  0.00  0.00    +0.259 HD
ENDBRANCH 125 126
ENDBRANCH 124 125
ENDBRANCH 123 124
ENDBRANCH  88 123
ENDBRANCH  84  88
ENDBRANCH  83  86
ENDBRANCH  79  83
ENDBRANCH  78  81
BRANCH  78 135
ATOM    135  CB  ARG A   7      -1.766  -7.943   4.486  0.00  0.00    +0.033 C 
BRANCH 135 136
ATOM    136  CG  ARG A   7      -2.728  -8.987   5.031  0.00  0.00    +0.045 C 
BRANCH 136 137
ATOM    137  CD  ARG A   7      -3.897  -9.196   4.085  0.00  0.00    +0.174 C 
BRANCH 137 138
ATOM    138  NE  ARG A   7      -4.590  -7.942   3.859  0.00  0.00    -0.265 N 
ATOM    139  HE  ARG A   7      -5.093  -7.514   4.663  0.00  0.00    +0.259 HD
ATOM    140  CZ  ARG A   7      -4.626  -7.303   2.694  0.00  0.00    +0.342 C 
ATOM    141  NH2 ARG A   7      -5.277  -6.152   2.596  0.00  0.00    -0.292 N 
ATOM    142 HH21 ARG A   7      -5.756  -5.753   3.428  0.00  0.00    +0.255 HD
ATOM    143 HH22 ARG A   7      -5.308  -5.648   1.687  0.00  0.00    +0.255 HD
ATOM    144  NH1 ARG A   7      -4.032  -7.823   1.627  0.00  0.00    -0.292 N 
ATOM    145 HH11 ARG A   7      -3.536  -8.734   1.700  0.00  0.00    +0.255 HD
ATOM    146 HH12 ARG A   7      -4.063  -7.319   0.718  0.00  0.00    +0.255 HD
ENDBRANCH 137 138
ENDBRANCH 136 137
ENDBRANCH 135 136
ENDBRANCH  78 135
ENDBRANCH   1  78
TORSDOF 53
REMARK  Name = ../refined-set-2016/4xty/4xty_pocket.pdb
REMARK  239 active torsions:
REMARK  status: ('A' for Active; 'I' for Inactive)
REMARK    1  A    between atoms: _1  and  _3
REMARK    2  A    between atoms: _3  and  _4
REMARK    3  A    between atoms: _3  and  _6
REMARK    4  A    between atoms: _6  and  _7
REMARK    5  A    between atoms: _10  and  _12
REMARK    6  A    between atoms: _12  and  _13
REMARK    7  A    between atoms: _15  and  _17
REMARK    8  A    between atoms: _17  and  _18
REMARK    9  A    between atoms: _17  and  _20
REMARK   10  A    between atoms: _20  and  _21
REMARK   11  A    between atoms: _23  and  _25
REMARK   12  A    between atoms: _25  and  _26
REMARK   13  A    between atoms: _25  and  _28
REMARK   14  A    between atoms: _28  and  _29
REMARK   15  A    between atoms: _32  and  _34
REMARK   16  A    between atoms: _34  and  _35
REMARK   17  A    between atoms: _34  and  _37
REMARK   18  A    between atoms: _37  and  _38
REMARK   19  A    between atoms: _43  and  _45
REMARK   20  A    between atoms: _45  and  _46
REMARK   21  A    between atoms: _49  and  _51
REMARK   22  A    between atoms: _51  and  _52
REMARK   23  A    between atoms: _51  and  _54
REMARK   24  A    between atoms: _54  and  _55
REMARK   25  A    between atoms: _58  and  _60
REMARK   26  A    between atoms: _60  and  _61
REMARK   27  A    between atoms: _60  and  _63
REMARK   28  A    between atoms: _63  and  _64
REMARK   29  A    between atoms: _67  and  _69
REMARK   30  A    between atoms: _69  and  _70
REMARK   31  A    between atoms: _69  and  _72
REMARK   32  A    between atoms: _72  and  _73
REMARK   33  A    between atoms: _76  and  _78
REMARK   34  A    between atoms: _78  and  _79
REMARK   35  A    between atoms: _78  and  _81
REMARK   36  A    between atoms: _81  and  _82
REMARK   37  A    between atoms: _85  and  _87
REMARK   38  A    between atoms: _87  and  _88
REMARK   39  A    between atoms: _91  and  _93
REMARK   40  A    between atoms: _93  and  _94
REMARK   41  A    between atoms: _93  and  _96
REMARK   42  A    between atoms: _96  and  _97
REMARK   43  A    between atoms: _97  and  _98
REMARK   44  A    between atoms: _103  and  _105
REMARK   45  A    between atoms: _105  and  _106
REMARK   46  A    between atoms: _105  and  _108
REMARK   47  A    between atoms: _108  and  _109
REMARK   48  A    between atoms: _112  and  _114
REMARK   49  A    between atoms: _114  and  _115
REMARK   50  A    between atoms: _118  and  _120
REMARK   51  A    between atoms: _120  and  _121
REMARK   52  A    between atoms: _123  and  _125
REMARK   53  A    between atoms: _125  and  _126
REMARK   54  A    between atoms: _125  and  _128
REMARK   55  A    between atoms: _128  and  _129
REMARK   56  A    between atoms: _129  and  _130
REMARK   57  A    between atoms: _130  and  _131
REMARK   58  A    between atoms: _140  and  _142
REMARK   59  A    between atoms: _142  and  _143
REMARK   60  A    between atoms: _145  and  _147
REMARK   61  A    between atoms: _147  and  _148
REMARK   62  A    between atoms: _147  and  _150
REMARK   63  A    between atoms: _150  and  _151
REMARK   64  A    between atoms: _151  and  _152
REMARK   65  A    between atoms: _152  and  _153
REMARK   66  A    between atoms: _162  and  _164
REMARK   67  A    between atoms: _164  and  _165
REMARK   68  A    between atoms: _164  and  _167
REMARK   69  A    between atoms: _167  and  _168
REMARK   70  A    between atoms: _173  and  _175
REMARK   71  A    between atoms: _175  and  _176
REMARK   72  A    between atoms: _178  and  _180
REMARK   73  A    between atoms: _180  and  _181
REMARK   74  A    between atoms: _180  and  _183
REMARK   75  A    between atoms: _183  and  _184
REMARK   76  A    between atoms: _184  and  _185
REMARK   77  A    between atoms: _185  and  _186
REMARK   78  A    between atoms: _195  and  _197
REMARK   79  A    between atoms: _197  and  _198
REMARK   80  A    between atoms: _200  and  _202
REMARK   81  A    between atoms: _202  and  _203
REMARK   82  A    between atoms: _202  and  _205
REMARK   83  A    between atoms: _205  and  _206
REMARK   84  A    between atoms: _216  and  _218
REMARK   85  A    between atoms: _218  and  _219
REMARK   86  A    between atoms: _222  and  _224
REMARK   87  A    between atoms: _224  and  _225
REMARK   88  A    between atoms: _228  and  _230
REMARK   89  A    between atoms: _230  and  _231
REMARK   90  A    between atoms: _230  and  _233
REMARK   91  A    between atoms: _233  and  _234
REMARK   92  A    between atoms: _237  and  _239
REMARK   93  A    between atoms: _239  and  _240
REMARK   94  A    between atoms: _239  and  _242
REMARK   95  A    between atoms: _242  and  _243
REMARK   96  A    between atoms: _243  and  _244
REMARK   97  A    between atoms: _249  and  _251
REMARK   98  A    between atoms: _251  and  _252
REMARK   99  A    between atoms: _251  and  _254
REMARK  100  A    between atoms: _254  and  _255
REMARK  101  A    between atoms: _258  and  _260
REMARK  102  A    between atoms: _260  and  _261
REMARK  103  A    between atoms: _260  and  _263
REMARK  104  A    between atoms: _263  and  _264
REMARK  105  A    between atoms: _267  and  _269
REMARK  106  A    between atoms: _269  and  _270
REMARK  107  A    between atoms: _269  and  _272
REMARK  108  A    between atoms: _272  and  _273
REMARK  109  A    between atoms: _276  and  _278
REMARK  110  A    between atoms: _278  and  _279
REMARK  111  A    between atoms: _278  and  _281
REMARK  112  A    between atoms: _281  and  _282
REMARK  113  A    between atoms: _284  and  _286
REMARK  114  A    between atoms: _286  and  _287
REMARK  115  A    between atoms: _286  and  _289
REMARK  116  A    between atoms: _292  and  _294
REMARK  117  A    between atoms: _294  and  _295
REMARK  118  A    between atoms: _294  and  _297
REMARK  119  A    between atoms: _297  and  _298
REMARK  120  A    between atoms: _298  and  _299
REMARK  121  A    between atoms: _299  and  _300
REMARK  122  A    between atoms: _300  and  _301
REMARK  123  A    between atoms: _305  and  _307
REMARK  124  A    between atoms: _307  and  _308
REMARK  125  A    between atoms: _307  and  _310
REMARK  126  A    between atoms: _310  and  _311
REMARK  127  A    between atoms: _322  and  _323
REMARK  128  A    between atoms: _328  and  _330
REMARK  129  A    between atoms: _330  and  _331
REMARK  130  A    between atoms: _330  and  _333
REMARK  131  A    between atoms: _333  and  _334
REMARK  132  A    between atoms: _339  and  _341
REMARK  133  A    between atoms: _341  and  _342
REMARK  134  A    between atoms: _341  and  _344
REMARK  135  A    between atoms: _344  and  _345
REMARK  136  A    between atoms: _348  and  _350
REMARK  137  A    between atoms: _350  and  _351
REMARK  138  A    between atoms: _350  and  _353
REMARK  139  A    between atoms: _356  and  _358
REMARK  140  A    between atoms: _358  and  _359
REMARK  141  A    between atoms: _361  and  _363
REMARK  142  A    between atoms: _363  and  _364
REMARK  143  A    between atoms: _363  and  _366
REMARK  144  A    between atoms: _366  and  _367
REMARK  145  A    between atoms: _367  and  _368
REMARK  146  A    between atoms: _368  and  _369
REMARK  147  A    between atoms: _369  and  _370
REMARK  148  A    between atoms: _374  and  _376
REMARK  149  A    between atoms: _376  and  _377
REMARK  150  A    between atoms: _376  and  _379
REMARK  151  A    between atoms: _379  and  _380
REMARK  152  A    between atoms: _383  and  _385
REMARK  153  A    between atoms: _385  and  _386
REMARK  154  A    between atoms: _389  and  _391
REMARK  155  A    between atoms: _391  and  _392
REMARK  156  A    between atoms: _394  and  _396
REMARK  157  A    between atoms: _396  and  _397
REMARK  158  A    between atoms: _396  and  _399
REMARK  159  A    between atoms: _399  and  _400
REMARK  160  A    between atoms: _403  and  _405
REMARK  161  A    between atoms: _405  and  _406
REMARK  162  A    between atoms: _405  and  _408
REMARK  163  A    between atoms: _408  and  _409
REMARK  164  A    between atoms: _412  and  _414
REMARK  165  A    between atoms: _414  and  _415
REMARK  166  A    between atoms: _418  and  _420
REMARK  167  A    between atoms: _420  and  _421
REMARK  168  A    between atoms: _420  and  _423
REMARK  169  A    between atoms: _423  and  _424
REMARK  170  A    between atoms: _424  and  _425
REMARK  171  A    between atoms: _428  and  _430
REMARK  172  A    between atoms: _430  and  _431
REMARK  173  A    between atoms: _430  and  _433
REMARK  174  A    between atoms: _436  and  _438
REMARK  175  A    between atoms: _438  and  _439
REMARK  176  A    between atoms: _438  and  _441
REMARK  177  A    between atoms: _441  and  _442
REMARK  178  A    between atoms: _445  and  _447
REMARK  179  A    between atoms: _447  and  _448
REMARK  180  A    between atoms: _450  and  _452
REMARK  181  A    between atoms: _452  and  _453
REMARK  182  A    between atoms: _452  and  _455
REMARK  183  A    between atoms: _458  and  _460
REMARK  184  A    between atoms: _460  and  _461
REMARK  185  A    between atoms: _463  and  _465
REMARK  186  A    between atoms: _465  and  _466
REMARK  187  A    between atoms: _465  and  _468
REMARK  188  A    between atoms: _468  and  _469
REMARK  189  A    between atoms: _472  and  _474
REMARK  190  A    between atoms: _474  and  _475
REMARK  191  A    between atoms: _474  and  _477
REMARK  192  A    between atoms: _477  and  _478
REMARK  193  A    between atoms: _483  and  _485
REMARK  194  A    between atoms: _485  and  _486
REMARK  195  A    between atoms: _485  and  _488
REMARK  196  A    between atoms: _491  and  _493
REMARK  197  A    between atoms: _493  and  _494
REMARK  198  A    between atoms: _493  and  _496
REMARK  199  A    between atoms: _496  and  _497
REMARK  200  A    between atoms: _497  and  _498
REMARK  201  A    between atoms: _503  and  _505
REMARK  202  A    between atoms: _505  and  _506
REMARK  203  A    between atoms: _510  and  _511
REMARK  204  A    between atoms: _516  and  _518
REMARK  205  A    between atoms: _518  and  _519
REMARK  206  A    between atoms: _518  and  _521
REMARK  207  A    between atoms: _521  and  _522
REMARK  208  A    between atoms: _522  and  _523
REMARK  209  A    between atoms: _526  and  _528
REMARK  210  A    between atoms: _528  and  _529
REMARK  211  A    between atoms: _528  and  _531
REMARK  212  A    between atoms: _534  and  _536
REMARK  213  A    between atoms: _536  and  _537
REMARK  214  A    between atoms: _536  and  _539
REMARK  215  A    between atoms: _539  and  _540
REMARK  216  A    between atoms: _544  and  _545
REMARK  217  A    between atoms: _550  and  _552
REMARK  218  A    between atoms: _552  and  _553
REMARK  219  A    between atoms: _552  and  _555
REMARK  220  A    between atoms: _555  and  _556
REMARK  221  A    between atoms: _559  and  _561
REMARK  222  A    between atoms: _561  and  _562
REMARK  223  A    between atoms: _565  and  _567
REMARK  224  A    between atoms: _567  and  _568
REMARK  225  A    between atoms: _567  and  _570
REMARK  226  A    between atoms: _570  and  _571
REMARK  227  A    between atoms: _574  and  _576
REMARK  228  A    between atoms: _576  and  _577
REMARK  229  A    between atoms: _576  and  _579
REMARK  230  A    between atoms: _579  and  _580
REMARK  231  A    between atoms: _582  and  _584
REMARK  232  A    between atoms: _584  and  _585
REMARK  233  A    between atoms: _587  and  _589
REMARK  234  A    between atoms: _589  and  _590
REMARK  235  A    between atoms: _589  and  _592
REMARK  236  A    between atoms: _592  and  _593
REMARK  237  A    between atoms: _596  and  _598
REMARK  238  A    between atoms: _598  and  _599
REMARK  239  A    between atoms: _598  and  _601
REMARK                            x       y       z     vdW  Elec       q    Type
REMARK                         _______ _______ _______ _____ _____    ______ ____
ROOT
ATOM      1  CA  ILE A   3      -5.361  -9.314  19.839  0.00  0.00    +0.149 C 
ENDROOT
BRANCH   1   3
ATOM      2  C   ILE A   2      -7.736  -8.776  20.171  0.00  0.00    +0.241 C 
ATOM      3  N   ILE A   3      -6.543  -9.097  20.665  0.00  0.00    -0.297 N 
ATOM      4  H   ILE A   3      -6.448  -9.199  21.696  0.00  0.00    +0.150 HD
ATOM      5  O   ILE A   2      -7.970  -8.647  18.967  0.00  0.00    -0.273 OA
BRANCH   2   6
ATOM      6  CA  ILE A   2      -8.814  -8.496  21.205  0.00  0.00    +0.148 C 
BRANCH   6   9
ATOM      7  C   GLN A   1      -8.585  -6.167  21.804  0.00  0.00    +0.238 C 
ATOM      8  O   GLN A   1      -8.087  -6.405  22.908  0.00  0.00    -0.274 OA
ATOM      9  N   ILE A   2      -9.169  -7.094  21.048  0.00  0.00    -0.297 N 
ATOM     10  H   ILE A   2      -9.881  -6.815  20.343  0.00  0.00    +0.150 HD
BRANCH   7  11
ATOM     11  CA  GLN A   1      -8.574  -4.766  21.246  0.00  0.00    +0.145 C 
BRANCH  11  12
ATOM     12  N   GLN A   1      -8.259  -3.786  22.281  0.00  0.00    -0.238 NA
ATOM     13  H   GLN A   1      -7.416  -3.934  22.872  0.00  0.00    +0.142 HD
ENDBRANCH  11  12
BRANCH  11  14
ATOM     14  CB  GLN A   1      -7.546  -4.702  20.114  0.00  0.00    +0.036 C 
BRANCH  14  15
ATOM     15  CG  GLN A   1      -7.610  -3.481  19.256  0.00  0.00    +0.087 C 
BRANCH  15  16
ATOM     16  CD  GLN A   1      -6.519  -3.494  18.215  0.00  0.00    +0.219 C 
ATOM     17  NE2 GLN A   1      -5.859  -2.352  18.042  0.00  0.00    -0.329 N 
ATOM     18 HE21 GLN A   1      -6.113  -1.514  18.604  0.00  0.00    +0.145 HD
ATOM     19 HE22 GLN A   1      -5.089  -2.297  17.345  0.00  0.00    +0.145 HD
ATOM     20  OE1 GLN A   1      -6.263  -4.523  17.577  0.00  0.00    -0.275 OA
ENDBRANCH  15  16
ENDBRANCH  14  15
ENDBRANCH  11  14
ENDBRANCH   7  11
ENDBRANCH   6   9
BRANCH   6  21
ATOM     21  CB  ILE A   2     -10.023  -9.417  21.017  0.00  0.00    +0.027 C 
ATOM     22  CG2 ILE A   2      -9.560 -10.879  20.817  0.00  0.00    +0.002 C 
BRANCH  21  23
ATOM     23  CG1 ILE A   2     -10.951  -9.278  22.233  0.00  0.00    +0.002 C 
ATOM     24  CD1 ILE A   2     -12.333  -9.842  22.015  0.00  0.00    +0.000 C 
ENDBRANCH  21  23
ENDBRANCH   6  21
ENDBRANCH   2   6
ENDBRANCH   1   3
BRANCH   1  25
ATOM     25  C   ILE A   3      -4.933 -10.752  20.026  0.00  0.00    +0.241 C 
ATOM     26  O   ILE A   3      -4.426 -11.108  21.084  0.00  0.00    -0.273 OA
ATOM     27  N   LEU A   4      -5.130 -11.596  19.023  0.00  0.00    -0.297 N 
ATOM     28  H   LEU A   4      -5.533 -11.277  18.119  0.00  0.00    +0.150 HD
BRANCH  27  29
ATOM     29  CA  LEU A   4      -4.761 -12.980  19.237  0.00  0.00    +0.149 C 
BRANCH  29  30
ATOM     30  C   LEU A   4      -4.277 -13.668  17.992  0.00  0.00    +0.241 C 
ATOM     31  N   SER A   5      -3.580 -14.776  18.226  0.00  0.00    -0.295 N 
ATOM     32  H   SER A   5      -3.363 -15.023  19.213  0.00  0.00    +0.150 HD
ATOM     33  O   LEU A   4      -4.511 -13.204  16.871  0.00  0.00    -0.273 OA
BRANCH  31  34
ATOM     34  CA  SER A   5      -3.109 -15.655  17.179  0.00  0.00    +0.178 C 
BRANCH  34  35
ATOM     35  C   SER A   5      -3.438 -17.081  17.577  0.00  0.00    +0.243 C 
ATOM     36  O   SER A   5      -3.402 -17.423  18.770  0.00  0.00    -0.273 OA
ATOM     37  N   VAL A   6      -3.761 -17.906  16.583  0.00  0.00    -0.298 N 
ATOM     38  H   VAL A   6      -3.883 -17.525  15.623  0.00  0.00    +0.150 HD
BRANCH  37  39
ATOM     39  CA  VAL A   6      -3.947 -19.339  16.815  0.00  0.00    +0.137 C 
BRANCH  39  40
ATOM     40  CB  VAL A   6      -5.437 -19.780  16.731  0.00  0.00    +0.026 C 
ATOM     41  CG2 VAL A   6      -6.295 -18.965  17.728  0.00  0.00    +0.002 C 
ATOM     42  CG1 VAL A   6      -5.983 -19.669  15.312  0.00  0.00    +0.002 C 
ENDBRANCH  39  40
BRANCH  39  43
ATOM     43  C   VAL A   6      -3.125 -20.111  15.796  0.00  0.00    +0.227 C 
ATOM     44  O   VAL A   6      -2.869 -19.603  14.702  0.00  0.00    -0.286 OA
ENDBRANCH  39  43
ENDBRANCH  37  39
ENDBRANCH  34  35
BRANCH  34  45
ATOM     45  CB  SER A   5      -1.594 -15.504  16.961  0.00  0.00    +0.166 C 
BRANCH  45  46
ATOM     46  OG  SER A   5      -1.283 -14.225  16.468  0.00  0.00    -0.380 OA
ATOM     47  H   SER A   5      -1.745 -14.084  15.604  0.00  0.00    +0.211 HD
ENDBRANCH  45  46
ENDBRANCH  34  45
ENDBRANCH  31  34
ENDBRANCH  29  30
BRANCH  29  48
ATOM     48  CB  LEU A   4      -5.936 -13.756  19.845  0.00  0.00    +0.029 C 
BRANCH  48  49
ATOM     49  CG  LEU A   4      -7.246 -13.944  19.080  0.00  0.00    +0.002 C 
ATOM     50  CD2 LEU A   4      -8.334 -14.295  20.111  0.00  0.00    +0.000 C 
ATOM     51  CD1 LEU A   4      -7.154 -15.063  18.041  0.00  0.00    +0.000 C 
ENDBRANCH  48  49
ENDBRANCH  29  48
ENDBRANCH  27  29
ENDBRANCH   1  25
BRANCH   1  52
ATOM     52  CB  ILE A   3      -4.183  -8.387  20.241  0.00  0.00    +0.027 C 
ATOM     53  CG2 ILE A   3      -2.969  -8.651  19.369  0.00  0.00    +0.002 C 
BRANCH  52  54
ATOM     54  CG1 ILE A   3      -4.573  -6.919  20.117  0.00  0.00    +0.002 C 
ATOM     55  CD1 ILE A   3      -3.478  -5.994  20.589  0.00  0.00    +0.000 C 
ENDBRANCH  52  54
ENDBRANCH   1  52
TORSDOF 24
REMARK  Name = ../refined-set-2016/4xty/4xty_pocket.pdb
REMARK  239 active torsions:
REMARK  status: ('A' for Active; 'I' for Inactive)
REMARK    1  A    between atoms: _1  and  _3
REMARK    2  A    between atoms: _3  and  _4
REMARK    3  A    between atoms: _3  and  _6
REMARK    4  A    between atoms: _6  and  _7
REMARK    5  A    between atoms: _10  and  _12
REMARK    6  A    between atoms: _12  and  _13
REMARK    7  A    between atoms: _15  and  _17
REMARK    8  A    between atoms: _17  and  _18
REMARK    9  A    between atoms: _17  and  _20
REMARK   10  A    between atoms: _20  and  _21
REMARK   11  A    between atoms: _23  and  _25
REMARK   12  A    between atoms: _25  and  _26
REMARK   13  A    between atoms: _25  and  _28
REMARK   14  A    between atoms: _28  and  _29
REMARK   15  A    between atoms: _32  and  _34
REMARK   16  A    between atoms: _34  and  _35
REMARK   17  A    between atoms: _34  and  _37
REMARK   18  A    between atoms: _37  and  _38
REMARK   19  A    between atoms: _43  and  _45
REMARK   20  A    between atoms: _45  and  _46
REMARK   21  A    between atoms: _49  and  _51
REMARK   22  A    between atoms: _51  and  _52
REMARK   23  A    between atoms: _51  and  _54
REMARK   24  A    between atoms: _54  and  _55
REMARK   25  A    between atoms: _58  and  _60
REMARK   26  A    between atoms: _60  and  _61
REMARK   27  A    between atoms: _60  and  _63
REMARK   28  A    between atoms: _63  and  _64
REMARK   29  A    between atoms: _67  and  _69
REMARK   30  A    between atoms: _69  and  _70
REMARK   31  A    between atoms: _69  and  _72
REMARK   32  A    between atoms: _72  and  _73
REMARK   33  A    between atoms: _76  and  _78
REMARK   34  A    between atoms: _78  and  _79
REMARK   35  A    between atoms: _78  and  _81
REMARK   36  A    between atoms: _81  and  _82
REMARK   37  A    between atoms: _85  and  _87
REMARK   38  A    between atoms: _87  and  _88
REMARK   39  A    between atoms: _91  and  _93
REMARK   40  A    between atoms: _93  and  _94
REMARK   41  A    between atoms: _93  and  _96
REMARK   42  A    between atoms: _96  and  _97
REMARK   43  A    between atoms: _97  and  _98
REMARK   44  A    between atoms: _103  and  _105
REMARK   45  A    between atoms: _105  and  _106
REMARK   46  A    between atoms: _105  and  _108
REMARK   47  A    between atoms: _108  and  _109
REMARK   48  A    between atoms: _112  and  _114
REMARK   49  A    between atoms: _114  and  _115
REMARK   50  A    between atoms: _118  and  _120
REMARK   51  A    between atoms: _120  and  _121
REMARK   52  A    between atoms: _123  and  _125
REMARK   53  A    between atoms: _125  and  _126
REMARK   54  A    between atoms: _125  and  _128
REMARK   55  A    between atoms: _128  and  _129
REMARK   56  A    between atoms: _129  and  _130
REMARK   57  A    between atoms: _130  and  _131
REMARK   58  A    between atoms: _140  and  _142
REMARK   59  A    between atoms: _142  and  _143
REMARK   60  A    between atoms: _145  and  _147
REMARK   61  A    between atoms: _147  and  _148
REMARK   62  A    between atoms: _147  and  _150
REMARK   63  A    between atoms: _150  and  _151
REMARK   64  A    between atoms: _151  and  _152
REMARK   65  A    between atoms: _152  and  _153
REMARK   66  A    between atoms: _162  and  _164
REMARK   67  A    between atoms: _164  and  _165
REMARK   68  A    between atoms: _164  and  _167
REMARK   69  A    between atoms: _167  and  _168
REMARK   70  A    between atoms: _173  and  _175
REMARK   71  A    between atoms: _175  and  _176
REMARK   72  A    between atoms: _178  and  _180
REMARK   73  A    between atoms: _180  and  _181
REMARK   74  A    between atoms: _180  and  _183
REMARK   75  A    between atoms: _183  and  _184
REMARK   76  A    between atoms: _184  and  _185
REMARK   77  A    between atoms: _185  and  _186
REMARK   78  A    between atoms: _195  and  _197
REMARK   79  A    between atoms: _197  and  _198
REMARK   80  A    between atoms: _200  and  _202
REMARK   81  A    between atoms: _202  and  _203
REMARK   82  A    between atoms: _202  and  _205
REMARK   83  A    between atoms: _205  and  _206
REMARK   84  A    between atoms: _216  and  _218
REMARK   85  A    between atoms: _218  and  _219
REMARK   86  A    between atoms: _222  and  _224
REMARK   87  A    between atoms: _224  and  _225
REMARK   88  A    between atoms: _228  and  _230
REMARK   89  A    between atoms: _230  and  _231
REMARK   90  A    between atoms: _230  and  _233
REMARK   91  A    between atoms: _233  and  _234
REMARK   92  A    between atoms: _237  and  _239
REMARK   93  A    between atoms: _239  and  _240
REMARK   94  A    between atoms: _239  and  _242
REMARK   95  A    between atoms: _242  and  _243
REMARK   96  A    between atoms: _243  and  _244
REMARK   97  A    between atoms: _249  and  _251
REMARK   98  A    between atoms: _251  and  _252
REMARK   99  A    between atoms: _251  and  _254
REMARK  100  A    between atoms: _254  and  _255
REMARK  101  A    between atoms: _258  and  _260
REMARK  102  A    between atoms: _260  and  _261
REMARK  103  A    between atoms: _260  and  _263
REMARK  104  A    between atoms: _263  and  _264
REMARK  105  A    between atoms: _267  and  _269
REMARK  106  A    between atoms: _269  and  _270
REMARK  107  A    between atoms: _269  and  _272
REMARK  108  A    between atoms: _272  and  _273
REMARK  109  A    between atoms: _276  and  _278
REMARK  110  A    between atoms: _278  and  _279
REMARK  111  A    between atoms: _278  and  _281
REMARK  112  A    between atoms: _281  and  _282
REMARK  113  A    between atoms: _284  and  _286
REMARK  114  A    between atoms: _286  and  _287
REMARK  115  A    between atoms: _286  and  _289
REMARK  116  A    between atoms: _292  and  _294
REMARK  117  A    between atoms: _294  and  _295
REMARK  118  A    between atoms: _294  and  _297
REMARK  119  A    between atoms: _297  and  _298
REMARK  120  A    between atoms: _298  and  _299
REMARK  121  A    between atoms: _299  and  _300
REMARK  122  A    between atoms: _300  and  _301
REMARK  123  A    between atoms: _305  and  _307
REMARK  124  A    between atoms: _307  and  _308
REMARK  125  A    between atoms: _307  and  _310
REMARK  126  A    between atoms: _310  and  _311
REMARK  127  A    between atoms: _322  and  _323
REMARK  128  A    between atoms: _328  and  _330
REMARK  129  A    between atoms: _330  and  _331
REMARK  130  A    between atoms: _330  and  _333
REMARK  131  A    between atoms: _333  and  _334
REMARK  132  A    between atoms: _339  and  _341
REMARK  133  A    between atoms: _341  and  _342
REMARK  134  A    between atoms: _341  and  _344
REMARK  135  A    between atoms: _344  and  _345
REMARK  136  A    between atoms: _348  and  _350
REMARK  137  A    between atoms: _350  and  _351
REMARK  138  A    between atoms: _350  and  _353
REMARK  139  A    between atoms: _356  and  _358
REMARK  140  A    between atoms: _358  and  _359
REMARK  141  A    between atoms: _361  and  _363
REMARK  142  A    between atoms: _363  and  _364
REMARK  143  A    between atoms: _363  and  _366
REMARK  144  A    between atoms: _366  and  _367
REMARK  145  A    between atoms: _367  and  _368
REMARK  146  A    between atoms: _368  and  _369
REMARK  147  A    between atoms: _369  and  _370
REMARK  148  A    between atoms: _374  and  _376
REMARK  149  A    between atoms: _376  and  _377
REMARK  150  A    between atoms: _376  and  _379
REMARK  151  A    between atoms: _379  and  _380
REMARK  152  A    between atoms: _383  and  _385
REMARK  153  A    between atoms: _385  and  _386
REMARK  154  A    between atoms: _389  and  _391
REMARK  155  A    between atoms: _391  and  _392
REMARK  156  A    between atoms: _394  and  _396
REMARK  157  A    between atoms: _396  and  _397
REMARK  158  A    between atoms: _396  and  _399
REMARK  159  A    between atoms: _399  and  _400
REMARK  160  A    between atoms: _403  and  _405
REMARK  161  A    between atoms: _405  and  _406
REMARK  162  A    between atoms: _405  and  _408
REMARK  163  A    between atoms: _408  and  _409
REMARK  164  A    between atoms: _412  and  _414
REMARK  165  A    between atoms: _414  and  _415
REMARK  166  A    between atoms: _418  and  _420
REMARK  167  A    between atoms: _420  and  _421
REMARK  168  A    between atoms: _420  and  _423
REMARK  169  A    between atoms: _423  and  _424
REMARK  170  A    between atoms: _424  and  _425
REMARK  171  A    between atoms: _428  and  _430
REMARK  172  A    between atoms: _430  and  _431
REMARK  173  A    between atoms: _430  and  _433
REMARK  174  A    between atoms: _436  and  _438
REMARK  175  A    between atoms: _438  and  _439
REMARK  176  A    between atoms: _438  and  _441
REMARK  177  A    between atoms: _441  and  _442
REMARK  178  A    between atoms: _445  and  _447
REMARK  179  A    between atoms: _447  and  _448
REMARK  180  A    between atoms: _450  and  _452
REMARK  181  A    between atoms: _452  and  _453
REMARK  182  A    between atoms: _452  and  _455
REMARK  183  A    between atoms: _458  and  _460
REMARK  184  A    between atoms: _460  and  _461
REMARK  185  A    between atoms: _463  and  _465
REMARK  186  A    between atoms: _465  and  _466
REMARK  187  A    between atoms: _465  and  _468
REMARK  188  A    between atoms: _468  and  _469
REMARK  189  A    between atoms: _472  and  _474
REMARK  190  A    between atoms: _474  and  _475
REMARK  191  A    between atoms: _474  and  _477
REMARK  192  A    between atoms: _477  and  _478
REMARK  193  A    between atoms: _483  and  _485
REMARK  194  A    between atoms: _485  and  _486
REMARK  195  A    between atoms: _485  and  _488
REMARK  196  A    between atoms: _491  and  _493
REMARK  197  A    between atoms: _493  and  _494
REMARK  198  A    between atoms: _493  and  _496
REMARK  199  A    between atoms: _496  and  _497
REMARK  200  A    between atoms: _497  and  _498
REMARK  201  A    between atoms: _503  and  _505
REMARK  202  A    between atoms: _505  and  _506
REMARK  203  A    between atoms: _510  and  _511
REMARK  204  A    between atoms: _516  and  _518
REMARK  205  A    between atoms: _518  and  _519
REMARK  206  A    between atoms: _518  and  _521
REMARK  207  A    between atoms: _521  and  _522
REMARK  208  A    between atoms: _522  and  _523
REMARK  209  A    between atoms: _526  and  _528
REMARK  210  A    between atoms: _528  and  _529
REMARK  211  A    between atoms: _528  and  _531
REMARK  212  A    between atoms: _534  and  _536
REMARK  213  A    between atoms: _536  and  _537
REMARK  214  A    between atoms: _536  and  _539
REMARK  215  A    between atoms: _539  and  _540
REMARK  216  A    between atoms: _544  and  _545
REMARK  217  A    between atoms: _550  and  _552
REMARK  218  A    between atoms: _552  and  _553
REMARK  219  A    between atoms: _552  and  _555
REMARK  220  A    between atoms: _555  and  _556
REMARK  221  A    between atoms: _559  and  _561
REMARK  222  A    between atoms: _561  and  _562
REMARK  223  A    between atoms: _565  and  _567
REMARK  224  A    between atoms: _567  and  _568
REMARK  225  A    between atoms: _567  and  _570
REMARK  226  A    between atoms: _570  and  _571
REMARK  227  A    between atoms: _574  and  _576
REMARK  228  A    between atoms: _576  and  _577
REMARK  229  A    between atoms: _576  and  _579
REMARK  230  A    between atoms: _579  and  _580
REMARK  231  A    between atoms: _582  and  _584
REMARK  232  A    between atoms: _584  and  _585
REMARK  233  A    between atoms: _587  and  _589
REMARK  234  A    between atoms: _589  and  _590
REMARK  235  A    between atoms: _589  and  _592
REMARK  236  A    between atoms: _592  and  _593
REMARK  237  A    between atoms: _596  and  _598
REMARK  238  A    between atoms: _598  and  _599
REMARK  239  A    between atoms: _598  and  _601
REMARK                            x       y       z     vdW  Elec       q    Type
REMARK                         _______ _______ _______ _____ _____    ______ ____
ROOT
ATOM      1  C   TRP A   2     -10.850  -8.672   0.742  0.00  0.00    +0.244 C 
ATOM      2  N   PRO A   3      -9.832  -9.386   1.272  0.00  0.00    -0.272 N 
ATOM      3  CA  PRO A   3      -9.785 -10.788   1.692  0.00  0.00    +0.152 C 
ATOM      4  CB  PRO A   3      -8.491 -11.272   1.050  0.00  0.00    +0.031 C 
ATOM      5  CG  PRO A   3      -7.568 -10.078   1.239  0.00  0.00    +0.024 C 
ATOM      6  CD  PRO A   3      -8.470  -8.826   1.185  0.00  0.00    +0.094 C 
ATOM      7  O   TRP A   2     -10.709  -7.524   0.363  0.00  0.00    -0.273 OA
ENDROOT
BRANCH   3   8
ATOM      8  C   PRO A   3      -9.688 -11.000   3.207  0.00  0.00    +0.241 C 
ATOM      9  N   ASN A   4      -9.630  -9.931   3.994  0.00  0.00    -0.297 N 
ATOM     10  H   ASN A   4      -9.863  -8.990   3.617  0.00  0.00    +0.150 HD
ATOM     11  O   PRO A   3      -9.633 -12.141   3.637  0.00  0.00    -0.273 OA
BRANCH   9  12
ATOM     12  CA  ASN A   4      -9.237 -10.086   5.391  0.00  0.00    +0.158 C 
BRANCH  12  13
ATOM     13  C   ASN A   4      -9.816  -9.020   6.303  0.00  0.00    +0.241 C 
ATOM     14  O   ASN A   4      -9.233  -8.739   7.361  0.00  0.00    -0.273 OA
ATOM     15  N   ASP A   5     -10.940  -8.415   5.903  0.00  0.00    -0.297 N 
ATOM     16  H   ASP A   5     -11.449  -8.763   5.065  0.00  0.00    +0.150 HD
BRANCH  15  17
ATOM     17  CA  ASP A   5     -11.453  -7.263   6.646  0.00  0.00    +0.160 C 
BRANCH  17  18
ATOM     18  C   ASP A   5     -12.874  -7.417   7.144  0.00  0.00    +0.241 C 
ATOM     19  N   VAL A   6     -13.093  -7.093   8.407  0.00  0.00    -0.298 N 
ATOM     20  H   VAL A   6     -12.289  -6.876   9.029  0.00  0.00    +0.150 HD
ATOM     21  O   ASP A   5     -13.769  -7.748   6.384  0.00  0.00    -0.273 OA
BRANCH  19  22
ATOM     22  CA  VAL A   6     -14.442  -7.037   8.933  0.00  0.00    +0.137 C 
BRANCH  22  23
ATOM     23  CB  VAL A   6     -14.554  -7.689  10.321  0.00  0.00    +0.026 C 
ATOM     24  CG2 VAL A   6     -15.981  -7.612  10.819  0.00  0.00    +0.002 C 
ATOM     25  CG1 VAL A   6     -14.081  -9.172  10.266  0.00  0.00    +0.002 C 
ENDBRANCH  22  23
BRANCH  22  26
ATOM     26  C   VAL A   6     -14.793  -5.552   8.971  0.00  0.00    +0.227 C 
ATOM     27  O   VAL A   6     -14.086  -4.760   9.609  0.00  0.00    -0.286 OA
ENDBRANCH  22  26
ENDBRANCH  19  22
ENDBRANCH  17  18
BRANCH  17  28
ATOM     28  CB  ASP A   5     -11.415  -5.996   5.780  0.00  0.00    +0.143 C 
BRANCH  28  29
ATOM     29  CG  ASP A   5     -10.012  -5.463   5.562  0.00  0.00    +0.367 C 
ATOM     30  OD2 ASP A   5      -9.016  -6.146   5.903  0.00  0.00    -0.246 OA
ATOM     31  OD1 ASP A   5      -9.911  -4.343   5.028  0.00  0.00    -0.246 OA
ENDBRANCH  28  29
ENDBRANCH  17  28
ENDBRANCH  15  17
ENDBRANCH  12  13
BRANCH  12  32
ATOM     32  CB  ASN A   4      -7.712 -10.060   5.511  0.00  0.00    +0.114 C 
BRANCH  32  33
ATOM     33  CG  ASN A   4      -7.127  -8.652   5.324  0.00  0.00    +0.222 C 
ATOM     34  ND2 ASN A   4      -6.211  -8.266   6.214  0.00  0.00    -0.329 N 
ATOM     35 HD21 ASN A   4      -5.927  -8.909   6.980  0.00  0.00    +0.145 HD
ATOM     36 HD22 ASN A   4      -5.781  -7.322   6.142  0.00  0.00    +0.145 HD
ATOM     37  OD1 ASN A   4      -7.498  -7.924   4.396  0.00  0.00    -0.275 OA
ENDBRANCH  32  33
ENDBRANCH  12  32
ENDBRANCH   9  12
ENDBRANCH   3   8
BRANCH   1  38
ATOM     38  CA  TRP A   2     -12.220  -9.337   0.616  0.00  0.00    +0.153 C 
BRANCH  38  41
ATOM     39  C   LYS A   1     -13.280  -7.904   2.260  0.00  0.00    +0.238 C 
ATOM     40  O   LYS A   1     -12.444  -8.201   3.110  0.00  0.00    -0.274 OA
ATOM     41  N   TRP A   2     -13.246  -8.370   1.019  0.00  0.00    -0.297 N 
ATOM     42  H   TRP A   2     -13.952  -8.047   0.327  0.00  0.00    +0.150 HD
BRANCH  39  43
ATOM     43  CA  LYS A   1     -14.437  -6.993   2.609  0.00  0.00    +0.145 C 
BRANCH  43  44
ATOM     44  N   LYS A   1     -15.080  -7.517   3.799  0.00  0.00    -0.238 NA
ATOM     45  H   LYS A   1     -14.640  -7.354   4.727  0.00  0.00    +0.142 HD
ENDBRANCH  43  44
BRANCH  43  46
ATOM     46  CB  LYS A   1     -13.932  -5.562   2.825  0.00  0.00    +0.026 C 
BRANCH  46  47
ATOM     47  CG  LYS A   1     -13.116  -5.045   1.628  0.00  0.00    -0.000 C 
BRANCH  47  48
ATOM     48  CD  LYS A   1     -13.012  -3.514   1.612  0.00  0.00    -0.024 C 
BRANCH  48  49
ATOM     49  CE  LYS A   1     -11.821  -3.048   2.425  0.00  0.00    -0.086 C 
BRANCH  49  50
ATOM     50  NZ  LYS A   1     -11.576  -1.596   2.196  0.00  0.00    +0.380 N 
ATOM     51  HZ1 LYS A   1     -10.757  -1.291   2.760  0.00  0.00    -0.089 HD
ATOM     52  HZ2 LYS A   1     -12.416  -1.054   2.482  0.00  0.00    -0.089 HD
ATOM     53  HZ3 LYS A   1     -11.384  -1.433   1.187  0.00  0.00    -0.089 HD
ENDBRANCH  49  50
ENDBRANCH  48  49
ENDBRANCH  47  48
ENDBRANCH  46  47
ENDBRANCH  43  46
ENDBRANCH  39  43
ENDBRANCH  38  41
BRANCH  38  54
ATOM     54  CB  TRP A   2     -12.481  -9.825  -0.819  0.00  0.00    +0.057 C 
BRANCH  54  55
ATOM     55  CG  TRP A   2     -11.548 -10.898  -1.293  0.00  0.00    -0.002 A 
ATOM     56  CD1 TRP A   2     -11.761 -12.246  -1.252  0.00  0.00    +0.068 A 
ATOM     57  NE1 TRP A   2     -10.675 -12.912  -1.776  0.00  0.00    -0.352 N 
ATOM     58  HE1 TRP A   2     -10.585 -13.944  -1.865  0.00  0.00    +0.166 HD
ATOM     59  CE2 TRP A   2      -9.731 -11.995  -2.161  0.00  0.00    +0.056 A 
ATOM     60  CZ2 TRP A   2      -8.475 -12.186  -2.740  0.00  0.00    +0.017 A 
ATOM     61  CH2 TRP A   2      -7.737 -11.078  -3.018  0.00  0.00    +0.001 A 
ATOM     62  CZ3 TRP A   2      -8.218  -9.792  -2.747  0.00  0.00    +0.000 A 
ATOM     63  CE3 TRP A   2      -9.463  -9.598  -2.183  0.00  0.00    +0.001 A 
ATOM     64  CD2 TRP A   2     -10.240 -10.717  -1.872  0.00  0.00    +0.013 A 
ENDBRANCH  54  55
ENDBRANCH  38  54
ENDBRANCH   1  38
TORSDOF 23
REMARK  Name = ../refined-set-2016/4xty/4xty_pocket.pdb
REMARK  239 active torsions:
REMARK  status: ('A' for Active; 'I' for Inactive)
REMARK    1  A    between atoms: _1  and  _3
REMARK    2  A    between atoms: _3  and  _4
REMARK    3  A    between atoms: _3  and  _6
REMARK    4  A    between atoms: _6  and  _7
REMARK    5  A    between atoms: _10  and  _12
REMARK    6  A    between atoms: _12  and  _13
REMARK    7  A    between atoms: _15  and  _17
REMARK    8  A    between atoms: _17  and  _18
REMARK    9  A    between atoms: _17  and  _20
REMARK   10  A    between atoms: _20  and  _21
REMARK   11  A    between atoms: _23  and  _25
REMARK   12  A    between atoms: _25  and  _26
REMARK   13  A    between atoms: _25  and  _28
REMARK   14  A    between atoms: _28  and  _29
REMARK   15  A    between atoms: _32  and  _34
REMARK   16  A    between atoms: _34  and  _35
REMARK   17  A    between atoms: _34  and  _37
REMARK   18  A    between atoms: _37  and  _38
REMARK   19  A    between atoms: _43  and  _45
REMARK   20  A    between atoms: _45  and  _46
REMARK   21  A    between atoms: _49  and  _51
REMARK   22  A    between atoms: _51  and  _52
REMARK   23  A    between atoms: _51  and  _54
REMARK   24  A    between atoms: _54  and  _55
REMARK   25  A    between atoms: _58  and  _60
REMARK   26  A    between atoms: _60  and  _61
REMARK   27  A    between atoms: _60  and  _63
REMARK   28  A    between atoms: _63  and  _64
REMARK   29  A    between atoms: _67  and  _69
REMARK   30  A    between atoms: _69  and  _70
REMARK   31  A    between atoms: _69  and  _72
REMARK   32  A    between atoms: _72  and  _73
REMARK   33  A    between atoms: _76  and  _78
REMARK   34  A    between atoms: _78  and  _79
REMARK   35  A    between atoms: _78  and  _81
REMARK   36  A    between atoms: _81  and  _82
REMARK   37  A    between atoms: _85  and  _87
REMARK   38  A    between atoms: _87  and  _88
REMARK   39  A    between atoms: _91  and  _93
REMARK   40  A    between atoms: _93  and  _94
REMARK   41  A    between atoms: _93  and  _96
REMARK   42  A    between atoms: _96  and  _97
REMARK   43  A    between atoms: _97  and  _98
REMARK   44  A    between atoms: _103  and  _105
REMARK   45  A    between atoms: _105  and  _106
REMARK   46  A    between atoms: _105  and  _108
REMARK   47  A    between atoms: _108  and  _109
REMARK   48  A    between atoms: _112  and  _114
REMARK   49  A    between atoms: _114  and  _115
REMARK   50  A    between atoms: _118  and  _120
REMARK   51  A    between atoms: _120  and  _121
REMARK   52  A    between atoms: _123  and  _125
REMARK   53  A    between atoms: _125  and  _126
REMARK   54  A    between atoms: _125  and  _128
REMARK   55  A    between atoms: _128  and  _129
REMARK   56  A    between atoms: _129  and  _130
REMARK   57  A    between atoms: _130  and  _131
REMARK   58  A    between atoms: _140  and  _142
REMARK   59  A    between atoms: _142  and  _143
REMARK   60  A    between atoms: _145  and  _147
REMARK   61  A    between atoms: _147  and  _148
REMARK   62  A    between atoms: _147  and  _150
REMARK   63  A    between atoms: _150  and  _151
REMARK   64  A    between atoms: _151  and  _152
REMARK   65  A    between atoms: _152  and  _153
REMARK   66  A    between atoms: _162  and  _164
REMARK   67  A    between atoms: _164  and  _165
REMARK   68  A    between atoms: _164  and  _167
REMARK   69  A    between atoms: _167  and  _168
REMARK   70  A    between atoms: _173  and  _175
REMARK   71  A    between atoms: _175  and  _176
REMARK   72  A    between atoms: _178  and  _180
REMARK   73  A    between atoms: _180  and  _181
REMARK   74  A    between atoms: _180  and  _183
REMARK   75  A    between atoms: _183  and  _184
REMARK   76  A    between atoms: _184  and  _185
REMARK   77  A    between atoms: _185  and  _186
REMARK   78  A    between atoms: _195  and  _197
REMARK   79  A    between atoms: _197  and  _198
REMARK   80  A    between atoms: _200  and  _202
REMARK   81  A    between atoms: _202  and  _203
REMARK   82  A    between atoms: _202  and  _205
REMARK   83  A    between atoms: _205  and  _206
REMARK   84  A    between atoms: _216  and  _218
REMARK   85  A    between atoms: _218  and  _219
REMARK   86  A    between atoms: _222  and  _224
REMARK   87  A    between atoms: _224  and  _225
REMARK   88  A    between atoms: _228  and  _230
REMARK   89  A    between atoms: _230  and  _231
REMARK   90  A    between atoms: _230  and  _233
REMARK   91  A    between atoms: _233  and  _234
REMARK   92  A    between atoms: _237  and  _239
REMARK   93  A    between atoms: _239  and  _240
REMARK   94  A    between atoms: _239  and  _242
REMARK   95  A    between atoms: _242  and  _243
REMARK   96  A    between atoms: _243  and  _244
REMARK   97  A    between atoms: _249  and  _251
REMARK   98  A    between atoms: _251  and  _252
REMARK   99  A    between atoms: _251  and  _254
REMARK  100  A    between atoms: _254  and  _255
REMARK  101  A    between atoms: _258  and  _260
REMARK  102  A    between atoms: _260  and  _261
REMARK  103  A    between atoms: _260  and  _263
REMARK  104  A    between atoms: _263  and  _264
REMARK  105  A    between atoms: _267  and  _269
REMARK  106  A    between atoms: _269  and  _270
REMARK  107  A    between atoms: _269  and  _272
REMARK  108  A    between atoms: _272  and  _273
REMARK  109  A    between atoms: _276  and  _278
REMARK  110  A    between atoms: _278  and  _279
REMARK  111  A    between atoms: _278  and  _281
REMARK  112  A    between atoms: _281  and  _282
REMARK  113  A    between atoms: _284  and  _286
REMARK  114  A    between atoms: _286  and  _287
REMARK  115  A    between atoms: _286  and  _289
REMARK  116  A    between atoms: _292  and  _294
REMARK  117  A    between atoms: _294  and  _295
REMARK  118  A    between atoms: _294  and  _297
REMARK  119  A    between atoms: _297  and  _298
REMARK  120  A    between atoms: _298  and  _299
REMARK  121  A    between atoms: _299  and  _300
REMARK  122  A    between atoms: _300  and  _301
REMARK  123  A    between atoms: _305  and  _307
REMARK  124  A    between atoms: _307  and  _308
REMARK  125  A    between atoms: _307  and  _310
REMARK  126  A    between atoms: _310  and  _311
REMARK  127  A    between atoms: _322  and  _323
REMARK  128  A    between atoms: _328  and  _330
REMARK  129  A    between atoms: _330  and  _331
REMARK  130  A    between atoms: _330  and  _333
REMARK  131  A    between atoms: _333  and  _334
REMARK  132  A    between atoms: _339  and  _341
REMARK  133  A    between atoms: _341  and  _342
REMARK  134  A    between atoms: _341  and  _344
REMARK  135  A    between atoms: _344  and  _345
REMARK  136  A    between atoms: _348  and  _350
REMARK  137  A    between atoms: _350  and  _351
REMARK  138  A    between atoms: _350  and  _353
REMARK  139  A    between atoms: _356  and  _358
REMARK  140  A    between atoms: _358  and  _359
REMARK  141  A    between atoms: _361  and  _363
REMARK  142  A    between atoms: _363  and  _364
REMARK  143  A    between atoms: _363  and  _366
REMARK  144  A    between atoms: _366  and  _367
REMARK  145  A    between atoms: _367  and  _368
REMARK  146  A    between atoms: _368  and  _369
REMARK  147  A    between atoms: _369  and  _370
REMARK  148  A    between atoms: _374  and  _376
REMARK  149  A    between atoms: _376  and  _377
REMARK  150  A    between atoms: _376  and  _379
REMARK  151  A    between atoms: _379  and  _380
REMARK  152  A    between atoms: _383  and  _385
REMARK  153  A    between atoms: _385  and  _386
REMARK  154  A    between atoms: _389  and  _391
REMARK  155  A    between atoms: _391  and  _392
REMARK  156  A    between atoms: _394  and  _396
REMARK  157  A    between atoms: _396  and  _397
REMARK  158  A    between atoms: _396  and  _399
REMARK  159  A    between atoms: _399  and  _400
REMARK  160  A    between atoms: _403  and  _405
REMARK  161  A    between atoms: _405  and  _406
REMARK  162  A    between atoms: _405  and  _408
REMARK  163  A    between atoms: _408  and  _409
REMARK  164  A    between atoms: _412  and  _414
REMARK  165  A    between atoms: _414  and  _415
REMARK  166  A    between atoms: _418  and  _420
REMARK  167  A    between atoms: _420  and  _421
REMARK  168  A    between atoms: _420  and  _423
REMARK  169  A    between atoms: _423  and  _424
REMARK  170  A    between atoms: _424  and  _425
REMARK  171  A    between atoms: _428  and  _430
REMARK  172  A    between atoms: _430  and  _431
REMARK  173  A    between atoms: _430  and  _433
REMARK  174  A    between atoms: _436  and  _438
REMARK  175  A    between atoms: _438  and  _439
REMARK  176  A    between atoms: _438  and  _441
REMARK  177  A    between atoms: _441  and  _442
REMARK  178  A    between atoms: _445  and  _447
REMARK  179  A    between atoms: _447  and  _448
REMARK  180  A    between atoms: _450  and  _452
REMARK  181  A    between atoms: _452  and  _453
REMARK  182  A    between atoms: _452  and  _455
REMARK  183  A    between atoms: _458  and  _460
REMARK  184  A    between atoms: _460  and  _461
REMARK  185  A    between atoms: _463  and  _465
REMARK  186  A    between atoms: _465  and  _466
REMARK  187  A    between atoms: _465  and  _468
REMARK  188  A    between atoms: _468  and  _469
REMARK  189  A    between atoms: _472  and  _474
REMARK  190  A    between atoms: _474  and  _475
REMARK  191  A    between atoms: _474  and  _477
REMARK  192  A    between atoms: _477  and  _478
REMARK  193  A    between atoms: _483  and  _485
REMARK  194  A    between atoms: _485  and  _486
REMARK  195  A    between atoms: _485  and  _488
REMARK  196  A    between atoms: _491  and  _493
REMARK  197  A    between atoms: _493  and  _494
REMARK  198  A    between atoms: _493  and  _496
REMARK  199  A    between atoms: _496  and  _497
REMARK  200  A    between atoms: _497  and  _498
REMARK  201  A    between atoms: _503  and  _505
REMARK  202  A    between atoms: _505  and  _506
REMARK  203  A    between atoms: _510  and  _511
REMARK  204  A    between atoms: _516  and  _518
REMARK  205  A    between atoms: _518  and  _519
REMARK  206  A    between atoms: _518  and  _521
REMARK  207  A    between atoms: _521  and  _522
REMARK  208  A    between atoms: _522  and  _523
REMARK  209  A    between atoms: _526  and  _528
REMARK  210  A    between atoms: _528  and  _529
REMARK  211  A    between atoms: _528  and  _531
REMARK  212  A    between atoms: _534  and  _536
REMARK  213  A    between atoms: _536  and  _537
REMARK  214  A    between atoms: _536  and  _539
REMARK  215  A    between atoms: _539  and  _540
REMARK  216  A    between atoms: _544  and  _545
REMARK  217  A    between atoms: _550  and  _552
REMARK  218  A    between atoms: _552  and  _553
REMARK  219  A    between atoms: _552  and  _555
REMARK  220  A    between atoms: _555  and  _556
REMARK  221  A    between atoms: _559  and  _561
REMARK  222  A    between atoms: _561  and  _562
REMARK  223  A    between atoms: _565  and  _567
REMARK  224  A    between atoms: _567  and  _568
REMARK  225  A    between atoms: _567  and  _570
REMARK  226  A    between atoms: _570  and  _571
REMARK  227  A    between atoms: _574  and  _576
REMARK  228  A    between atoms: _576  and  _577
REMARK  229  A    between atoms: _576  and  _579
REMARK  230  A    between atoms: _579  and  _580
REMARK  231  A    between atoms: _582  and  _584
REMARK  232  A    between atoms: _584  and  _585
REMARK  233  A    between atoms: _587  and  _589
REMARK  234  A    between atoms: _589  and  _590
REMARK  235  A    between atoms: _589  and  _592
REMARK  236  A    between atoms: _592  and  _593
REMARK  237  A    between atoms: _596  and  _598
REMARK  238  A    between atoms: _598  and  _599
REMARK  239  A    between atoms: _598  and  _601
REMARK                            x       y       z     vdW  Elec       q    Type
REMARK                         _______ _______ _______ _____ _____    ______ ____
ROOT
ATOM      1  CA  GLY A   5      -8.076  -7.195  10.398  0.00  0.00    +0.176 C 
ENDROOT
BRANCH   1   3
ATOM      2  C   ALA A   4     -10.217  -6.397  11.242  0.00  0.00    +0.241 C 
ATOM      3  N   GLY A   5      -8.962  -6.771  11.468  0.00  0.00    -0.295 N 
ATOM      4  H   GLY A   5      -8.602  -6.760  12.444  0.00  0.00    +0.150 HD
ATOM      5  O   ALA A   4     -10.724  -6.318  10.118  0.00  0.00    -0.273 OA
BRANCH   2   6
ATOM      6  CA  ALA A   4     -11.036  -6.103  12.481  0.00  0.00    +0.149 C 
ATOM      7  CB  ALA A   4     -11.671  -7.409  12.983  0.00  0.00    +0.031 C 
BRANCH   6  10
ATOM      8  C   LEU A   3     -12.513  -4.284  13.178  0.00  0.00    +0.241 C 
ATOM      9  O   LEU A   3     -12.137  -4.376  14.357  0.00  0.00    -0.273 OA
ATOM     10  N   ALA A   4     -12.051  -5.079  12.210  0.00  0.00    -0.297 N 
ATOM     11  H   ALA A   4     -12.418  -4.970  11.243  0.00  0.00    +0.150 HD
BRANCH   8  12
ATOM     12  CA  LEU A   3     -13.546  -3.241  12.764  0.00  0.00    +0.149 C 
BRANCH  12  15
ATOM     13  C   LYS A   2     -12.519  -1.755  11.088  0.00  0.00    +0.241 C 
ATOM     14  O   LYS A   2     -11.809  -1.162  11.900  0.00  0.00    -0.273 OA
ATOM     15  N   LEU A   3     -13.331  -2.764  11.404  0.00  0.00    -0.297 N 
ATOM     16  H   LEU A   3     -13.842  -3.240  10.633  0.00  0.00    +0.150 HD
BRANCH  13  17
ATOM     17  CA  LYS A   2     -12.510  -1.364   9.613  0.00  0.00    +0.149 C 
BRANCH  17  19
ATOM     18  C   GLY A   1     -14.472  -0.009   9.231  0.00  0.00    +0.240 C 
ATOM     19  N   LYS A   2     -13.157  -0.065   9.414  0.00  0.00    -0.297 N 
ATOM     20  H   LYS A   2     -12.591   0.808   9.416  0.00  0.00    +0.150 HD
ATOM     21  O   GLY A   1     -15.181  -1.008   9.262  0.00  0.00    -0.274 OA
BRANCH  18  22
ATOM     22  CA  GLY A   1     -15.081   1.363   9.004  0.00  0.00    +0.169 C 
BRANCH  22  23
ATOM     23  N   GLY A   1     -16.335   1.273   8.271  0.00  0.00    -0.236 NA
ATOM     24  H   GLY A   1     -17.209   1.027   8.778  0.00  0.00    +0.142 HD
ENDBRANCH  22  23
ENDBRANCH  18  22
ENDBRANCH  17  19
BRANCH  17  25
ATOM     25  CB  LYS A   2     -11.073  -1.343   9.091  0.00  0.00    +0.029 C 
BRANCH  25  26
ATOM     26  CG  LYS A   2     -10.385  -2.707   9.199  0.00  0.00    +0.000 C 
BRANCH  26  27
ATOM     27  CD  LYS A   2      -9.238  -2.789   8.224  0.00  0.00    -0.024 C 
BRANCH  27  28
ATOM     28  CE  LYS A   2      -8.422  -4.046   8.471  0.00  0.00    -0.086 C 
BRANCH  28  29
ATOM     29  NZ  LYS A   2      -7.393  -4.170   7.416  0.00  0.00    +0.380 N 
ATOM     30  HZ1 LYS A   2      -6.831  -5.030   7.581  0.00  0.00    -0.089 HD
ATOM     31  HZ2 LYS A   2      -6.770  -3.337   7.441  0.00  0.00    -0.089 HD
ATOM     32  HZ3 LYS A   2      -7.856  -4.230   6.487  0.00  0.00    -0.089 HD
ENDBRANCH  28  29
ENDBRANCH  27  28
ENDBRANCH  26  27
ENDBRANCH  25  26
ENDBRANCH  17  25
ENDBRANCH  13  17
ENDBRANCH  12  15
BRANCH  12  33
ATOM     33  CB  LEU A   3     -14.966  -3.816  12.867  0.00  0.00    +0.029 C 
BRANCH  33  34
ATOM     34  CG  LEU A   3     -15.414  -4.465  14.177  0.00  0.00    +0.002 C 
ATOM     35  CD2 LEU A   3     -15.340  -3.434  15.287  0.00  0.00    +0.000 C 
ATOM     36  CD1 LEU A   3     -16.830  -5.011  14.043  0.00  0.00    +0.000 C 
ENDBRANCH  33  34
ENDBRANCH  12  33
ENDBRANCH   8  12
ENDBRANCH   6  10
ENDBRANCH   2   6
ENDBRANCH   1   3
BRANCH   1  37
ATOM     37  C   GLY A   5      -7.500  -8.560  10.706  0.00  0.00    +0.243 C 
ATOM     38  O   GLY A   5      -7.272  -8.886  11.867  0.00  0.00    -0.273 OA
ATOM     39  N   ILE A   6      -7.294  -9.361   9.666  0.00  0.00    -0.297 N 
ATOM     40  H   ILE A   6      -7.459  -8.993   8.707  0.00  0.00    +0.150 HD
BRANCH  39  41
ATOM     41  CA  ILE A   6      -6.847 -10.731   9.823  0.00  0.00    +0.149 C 
BRANCH  41  42
ATOM     42  C   ILE A   6      -5.558 -10.965   9.043  0.00  0.00    +0.241 C 
ATOM     43  N   LEU A   7      -4.628 -11.696   9.645  0.00  0.00    -0.297 N 
ATOM     44  H   LEU A   7      -4.810 -12.067  10.599  0.00  0.00    +0.150 HD
ATOM     45  O   ILE A   6      -5.416 -10.502   7.913  0.00  0.00    -0.273 OA
BRANCH  43  46
ATOM     46  CA  LEU A   7      -3.356 -11.989   8.994  0.00  0.00    +0.149 C 
BRANCH  46  47
ATOM     47  C   LEU A   7      -2.997 -13.463   9.120  0.00  0.00    +0.241 C 
ATOM     48  O   LEU A   7      -2.894 -13.978  10.229  0.00  0.00    -0.273 OA
ATOM     49  N   ALA A   8      -2.793 -14.122   7.984  0.00  0.00    -0.297 N 
ATOM     50  H   ALA A   8      -2.917 -13.622   7.080  0.00  0.00    +0.150 HD
BRANCH  49  51
ATOM     51  CA  ALA A   8      -2.400 -15.529   7.969  0.00  0.00    +0.149 C 
ATOM     52  CB  ALA A   8      -3.318 -16.333   7.056  0.00  0.00    +0.031 C 
BRANCH  51  53
ATOM     53  C   ALA A   8      -0.957 -15.644   7.512  0.00  0.00    +0.241 C 
ATOM     54  N   GLU A   9      -0.158 -16.383   8.269  0.00  0.00    -0.298 N 
ATOM     55  H   GLU A   9      -0.539 -16.844   9.120  0.00  0.00    +0.150 HD
ATOM     56  O   ALA A   8      -0.561 -15.053   6.504  0.00  0.00    -0.273 OA
BRANCH  54  57
ATOM     57  CA  GLU A   9       1.249 -16.557   7.923  0.00  0.00    +0.137 C 
BRANCH  57  58
ATOM     58  C   GLU A   9       1.616 -18.026   8.014  0.00  0.00    +0.227 C 
ATOM     59  O   GLU A   9       1.108 -18.750   8.876  0.00  0.00    -0.286 OA
ENDBRANCH  57  58
BRANCH  57  60
ATOM     60  CB  GLU A   9       2.133 -15.716   8.835  0.00  0.00    +0.039 C 
BRANCH  60  61
ATOM     61  CG  GLU A   9       1.836 -14.223   8.734  0.00  0.00    +0.116 C 
BRANCH  61  62
ATOM     62  CD  GLU A   9       2.835 -13.364   9.485  0.00  0.00    +0.365 C 
ATOM     63  OE2 GLU A   9       2.608 -13.076  10.675  0.00  0.00    -0.246 OA
ATOM     64  OE1 GLU A   9       3.842 -12.952   8.876  0.00  0.00    -0.246 OA
ENDBRANCH  61  62
ENDBRANCH  60  61
ENDBRANCH  57  60
ENDBRANCH  54  57
ENDBRANCH  51  53
ENDBRANCH  49  51
ENDBRANCH  46  47
BRANCH  46  65
ATOM     65  CB  LEU A   7      -2.246 -11.141   9.598  0.00  0.00    +0.029 C 
BRANCH  65  66
ATOM     66  CG  LEU A   7      -0.854 -11.362   9.000  0.00  0.00    +0.002 C 
ATOM     67  CD2 LEU A   7       0.192 -10.636   9.830  0.00  0.00    +0.000 C 
ATOM     68  CD1 LEU A   7      -0.814 -10.892   7.547  0.00  0.00    +0.000 C 
ENDBRANCH  65  66
ENDBRANCH  46  65
ENDBRANCH  43  46
ENDBRANCH  41  42
BRANCH  41  69
ATOM     69  CB  ILE A   6      -7.942 -11.696   9.358  0.00  0.00    +0.027 C 
ATOM     70  CG2 ILE A   6      -7.455 -13.152   9.388  0.00  0.00    +0.002 C 
BRANCH  69  71
ATOM     71  CG1 ILE A   6      -9.204 -11.444  10.208  0.00  0.00    +0.002 C 
ATOM     72  CD1 ILE A   6      -9.969 -12.621  10.529  0.00  0.00    +0.000 C 
ENDBRANCH  69  71
ENDBRANCH  41  69
ENDBRANCH  39  41
ENDBRANCH   1  37
TORSDOF 32
REMARK  Name = ../refined-set-2016/4xty/4xty_pocket.pdb
REMARK  239 active torsions:
REMARK  status: ('A' for Active; 'I' for Inactive)
REMARK    1  A    between atoms: _1  and  _3
REMARK    2  A    between atoms: _3  and  _4
REMARK    3  A    between atoms: _3  and  _6
REMARK    4  A    between atoms: _6  and  _7
REMARK    5  A    between atoms: _10  and  _12
REMARK    6  A    between atoms: _12  and  _13
REMARK    7  A    between atoms: _15  and  _17
REMARK    8  A    between atoms: _17  and  _18
REMARK    9  A    between atoms: _17  and  _20
REMARK   10  A    between atoms: _20  and  _21
REMARK   11  A    between atoms: _23  and  _25
REMARK   12  A    between atoms: _25  and  _26
REMARK   13  A    between atoms: _25  and  _28
REMARK   14  A    between atoms: _28  and  _29
REMARK   15  A    between atoms: _32  and  _34
REMARK   16  A    between atoms: _34  and  _35
REMARK   17  A    between atoms: _34  and  _37
REMARK   18  A    between atoms: _37  and  _38
REMARK   19  A    between atoms: _43  and  _45
REMARK   20  A    between atoms: _45  and  _46
REMARK   21  A    between atoms: _49  and  _51
REMARK   22  A    between atoms: _51  and  _52
REMARK   23  A    between atoms: _51  and  _54
REMARK   24  A    between atoms: _54  and  _55
REMARK   25  A    between atoms: _58  and  _60
REMARK   26  A    between atoms: _60  and  _61
REMARK   27  A    between atoms: _60  and  _63
REMARK   28  A    between atoms: _63  and  _64
REMARK   29  A    between atoms: _67  and  _69
REMARK   30  A    between atoms: _69  and  _70
REMARK   31  A    between atoms: _69  and  _72
REMARK   32  A    between atoms: _72  and  _73
REMARK   33  A    between atoms: _76  and  _78
REMARK   34  A    between atoms: _78  and  _79
REMARK   35  A    between atoms: _78  and  _81
REMARK   36  A    between atoms: _81  and  _82
REMARK   37  A    between atoms: _85  and  _87
REMARK   38  A    between atoms: _87  and  _88
REMARK   39  A    between atoms: _91  and  _93
REMARK   40  A    between atoms: _93  and  _94
REMARK   41  A    between atoms: _93  and  _96
REMARK   42  A    between atoms: _96  and  _97
REMARK   43  A    between atoms: _97  and  _98
REMARK   44  A    between atoms: _103  and  _105
REMARK   45  A    between atoms: _105  and  _106
REMARK   46  A    between atoms: _105  and  _108
REMARK   47  A    between atoms: _108  and  _109
REMARK   48  A    between atoms: _112  and  _114
REMARK   49  A    between atoms: _114  and  _115
REMARK   50  A    between atoms: _118  and  _120
REMARK   51  A    between atoms: _120  and  _121
REMARK   52  A    between atoms: _123  and  _125
REMARK   53  A    between atoms: _125  and  _126
REMARK   54  A    between atoms: _125  and  _128
REMARK   55  A    between atoms: _128  and  _129
REMARK   56  A    between atoms: _129  and  _130
REMARK   57  A    between atoms: _130  and  _131
REMARK   58  A    between atoms: _140  and  _142
REMARK   59  A    between atoms: _142  and  _143
REMARK   60  A    between atoms: _145  and  _147
REMARK   61  A    between atoms: _147  and  _148
REMARK   62  A    between atoms: _147  and  _150
REMARK   63  A    between atoms: _150  and  _151
REMARK   64  A    between atoms: _151  and  _152
REMARK   65  A    between atoms: _152  and  _153
REMARK   66  A    between atoms: _162  and  _164
REMARK   67  A    between atoms: _164  and  _165
REMARK   68  A    between atoms: _164  and  _167
REMARK   69  A    between atoms: _167  and  _168
REMARK   70  A    between atoms: _173  and  _175
REMARK   71  A    between atoms: _175  and  _176
REMARK   72  A    between atoms: _178  and  _180
REMARK   73  A    between atoms: _180  and  _181
REMARK   74  A    between atoms: _180  and  _183
REMARK   75  A    between atoms: _183  and  _184
REMARK   76  A    between atoms: _184  and  _185
REMARK   77  A    between atoms: _185  and  _186
REMARK   78  A    between atoms: _195  and  _197
REMARK   79  A    between atoms: _197  and  _198
REMARK   80  A    between atoms: _200  and  _202
REMARK   81  A    between atoms: _202  and  _203
REMARK   82  A    between atoms: _202  and  _205
REMARK   83  A    between atoms: _205  and  _206
REMARK   84  A    between atoms: _216  and  _218
REMARK   85  A    between atoms: _218  and  _219
REMARK   86  A    between atoms: _222  and  _224
REMARK   87  A    between atoms: _224  and  _225
REMARK   88  A    between atoms: _228  and  _230
REMARK   89  A    between atoms: _230  and  _231
REMARK   90  A    between atoms: _230  and  _233
REMARK   91  A    between atoms: _233  and  _234
REMARK   92  A    between atoms: _237  and  _239
REMARK   93  A    between atoms: _239  and  _240
REMARK   94  A    between atoms: _239  and  _242
REMARK   95  A    between atoms: _242  and  _243
REMARK   96  A    between atoms: _243  and  _244
REMARK   97  A    between atoms: _249  and  _251
REMARK   98  A    between atoms: _251  and  _252
REMARK   99  A    between atoms: _251  and  _254
REMARK  100  A    between atoms: _254  and  _255
REMARK  101  A    between atoms: _258  and  _260
REMARK  102  A    between atoms: _260  and  _261
REMARK  103  A    between atoms: _260  and  _263
REMARK  104  A    between atoms: _263  and  _264
REMARK  105  A    between atoms: _267  and  _269
REMARK  106  A    between atoms: _269  and  _270
REMARK  107  A    between atoms: _269  and  _272
REMARK  108  A    between atoms: _272  and  _273
REMARK  109  A    between atoms: _276  and  _278
REMARK  110  A    between atoms: _278  and  _279
REMARK  111  A    between atoms: _278  and  _281
REMARK  112  A    between atoms: _281  and  _282
REMARK  113  A    between atoms: _284  and  _286
REMARK  114  A    between atoms: _286  and  _287
REMARK  115  A    between atoms: _286  and  _289
REMARK  116  A    between atoms: _292  and  _294
REMARK  117  A    between atoms: _294  and  _295
REMARK  118  A    between atoms: _294  and  _297
REMARK  119  A    between atoms: _297  and  _298
REMARK  120  A    between atoms: _298  and  _299
REMARK  121  A    between atoms: _299  and  _300
REMARK  122  A    between atoms: _300  and  _301
REMARK  123  A    between atoms: _305  and  _307
REMARK  124  A    between atoms: _307  and  _308
REMARK  125  A    between atoms: _307  and  _310
REMARK  126  A    between atoms: _310  and  _311
REMARK  127  A    between atoms: _322  and  _323
REMARK  128  A    between atoms: _328  and  _330
REMARK  129  A    between atoms: _330  and  _331
REMARK  130  A    between atoms: _330  and  _333
REMARK  131  A    between atoms: _333  and  _334
REMARK  132  A    between atoms: _339  and  _341
REMARK  133  A    between atoms: _341  and  _342
REMARK  134  A    between atoms: _341  and  _344
REMARK  135  A    between atoms: _344  and  _345
REMARK  136  A    between atoms: _348  and  _350
REMARK  137  A    between atoms: _350  and  _351
REMARK  138  A    between atoms: _350  and  _353
REMARK  139  A    between atoms: _356  and  _358
REMARK  140  A    between atoms: _358  and  _359
REMARK  141  A    between atoms: _361  and  _363
REMARK  142  A    between atoms: _363  and  _364
REMARK  143  A    between atoms: _363  and  _366
REMARK  144  A    between atoms: _366  and  _367
REMARK  145  A    between atoms: _367  and  _368
REMARK  146  A    between atoms: _368  and  _369
REMARK  147  A    between atoms: _369  and  _370
REMARK  148  A    between atoms: _374  and  _376
REMARK  149  A    between atoms: _376  and  _377
REMARK  150  A    between atoms: _376  and  _379
REMARK  151  A    between atoms: _379  and  _380
REMARK  152  A    between atoms: _383  and  _385
REMARK  153  A    between atoms: _385  and  _386
REMARK  154  A    between atoms: _389  and  _391
REMARK  155  A    between atoms: _391  and  _392
REMARK  156  A    between atoms: _394  and  _396
REMARK  157  A    between atoms: _396  and  _397
REMARK  158  A    between atoms: _396  and  _399
REMARK  159  A    between atoms: _399  and  _400
REMARK  160  A    between atoms: _403  and  _405
REMARK  161  A    between atoms: _405  and  _406
REMARK  162  A    between atoms: _405  and  _408
REMARK  163  A    between atoms: _408  and  _409
REMARK  164  A    between atoms: _412  and  _414
REMARK  165  A    between atoms: _414  and  _415
REMARK  166  A    between atoms: _418  and  _420
REMARK  167  A    between atoms: _420  and  _421
REMARK  168  A    between atoms: _420  and  _423
REMARK  169  A    between atoms: _423  and  _424
REMARK  170  A    between atoms: _424  and  _425
REMARK  171  A    between atoms: _428  and  _430
REMARK  172  A    between atoms: _430  and  _431
REMARK  173  A    between atoms: _430  and  _433
REMARK  174  A    between atoms: _436  and  _438
REMARK  175  A    between atoms: _438  and  _439
REMARK  176  A    between atoms: _438  and  _441
REMARK  177  A    between atoms: _441  and  _442
REMARK  178  A    between atoms: _445  and  _447
REMARK  179  A    between atoms: _447  and  _448
REMARK  180  A    between atoms: _450  and  _452
REMARK  181  A    between atoms: _452  and  _453
REMARK  182  A    between atoms: _452  and  _455
REMARK  183  A    between atoms: _458  and  _460
REMARK  184  A    between atoms: _460  and  _461
REMARK  185  A    between atoms: _463  and  _465
REMARK  186  A    between atoms: _465  and  _466
REMARK  187  A    between atoms: _465  and  _468
REMARK  188  A    between atoms: _468  and  _469
REMARK  189  A    between atoms: _472  and  _474
REMARK  190  A    between atoms: _474  and  _475
REMARK  191  A    between atoms: _474  and  _477
REMARK  192  A    between atoms: _477  and  _478
REMARK  193  A    between atoms: _483  and  _485
REMARK  194  A    between atoms: _485  and  _486
REMARK  195  A    between atoms: _485  and  _488
REMARK  196  A    between atoms: _491  and  _493
REMARK  197  A    between atoms: _493  and  _494
REMARK  198  A    between atoms: _493  and  _496
REMARK  199  A    between atoms: _496  and  _497
REMARK  200  A    between atoms: _497  and  _498
REMARK  201  A    between atoms: _503  and  _505
REMARK  202  A    between atoms: _505  and  _506
REMARK  203  A    between atoms: _510  and  _511
REMARK  204  A    between atoms: _516  and  _518
REMARK  205  A    between atoms: _518  and  _519
REMARK  206  A    between atoms: _518  and  _521
REMARK  207  A    between atoms: _521  and  _522
REMARK  208  A    between atoms: _522  and  _523
REMARK  209  A    between atoms: _526  and  _528
REMARK  210  A    between atoms: _528  and  _529
REMARK  211  A    between atoms: _528  and  _531
REMARK  212  A    between atoms: _534  and  _536
REMARK  213  A    between atoms: _536  and  _537
REMARK  214  A    between atoms: _536  and  _539
REMARK  215  A    between atoms: _539  and  _540
REMARK  216  A    between atoms: _544  and  _545
REMARK  217  A    between atoms: _550  and  _552
REMARK  218  A    between atoms: _552  and  _553
REMARK  219  A    between atoms: _552  and  _555
REMARK  220  A    between atoms: _555  and  _556
REMARK  221  A    between atoms: _559  and  _561
REMARK  222  A    between atoms: _561  and  _562
REMARK  223  A    between atoms: _565  and  _567
REMARK  224  A    between atoms: _567  and  _568
REMARK  225  A    between atoms: _567  and  _570
REMARK  226  A    between atoms: _570  and  _571
REMARK  227  A    between atoms: _574  and  _576
REMARK  228  A    between atoms: _576  and  _577
REMARK  229  A    between atoms: _576  and  _579
REMARK  230  A    between atoms: _579  and  _580
REMARK  231  A    between atoms: _582  and  _584
REMARK  232  A    between atoms: _584  and  _585
REMARK  233  A    between atoms: _587  and  _589
REMARK  234  A    between atoms: _589  and  _590
REMARK  235  A    between atoms: _589  and  _592
REMARK  236  A    between atoms: _592  and  _593
REMARK  237  A    between atoms: _596  and  _598
REMARK  238  A    between atoms: _598  and  _599
REMARK  239  A    between atoms: _598  and  _601
REMARK                            x       y       z     vdW  Elec       q    Type
REMARK                         _______ _______ _______ _____ _____    ______ ____
ROOT
ATOM      1  C   VAL A   4      -6.644 -10.152  15.438  0.00  0.00    +0.241 C 
ATOM      2  O   VAL A   4      -6.212 -10.273  16.588  0.00  0.00    -0.273 OA
ATOM      3  N   GLY A   5      -6.896  -8.974  14.876  0.00  0.00    -0.295 N 
ATOM      4  H   GLY A   5      -7.107  -8.927  13.859  0.00  0.00    +0.150 HD
ENDROOT
BRANCH   3   5
ATOM      5  CA  GLY A   5      -6.882  -7.748  15.662  0.00  0.00    +0.176 C 
BRANCH   5   6
ATOM      6  C   GLY A   5      -8.289  -7.191  15.582  0.00  0.00    +0.243 C 
ATOM      7  N   LEU A   6      -9.016  -7.205  16.695  0.00  0.00    -0.297 N 
ATOM      8  H   LEU A   6      -8.591  -7.536  17.585  0.00  0.00    +0.150 HD
ATOM      9  O   GLY A   5      -8.730  -6.792  14.506  0.00  0.00    -0.273 OA
BRANCH   7  10
ATOM     10  CA  LEU A   6     -10.418  -6.756  16.677  0.00  0.00    +0.149 C 
BRANCH  10  11
ATOM     11  C   LEU A   6     -10.586  -5.533  17.563  0.00  0.00    +0.241 C 
ATOM     12  O   LEU A   6     -10.279  -5.597  18.756  0.00  0.00    -0.273 OA
ATOM     13  N   ASN A   7     -11.047  -4.419  16.987  0.00  0.00    -0.297 N 
ATOM     14  H   ASN A   7     -11.310  -4.438  15.981  0.00  0.00    +0.150 HD
BRANCH  13  15
ATOM     15  CA  ASN A   7     -11.190  -3.171  17.741  0.00  0.00    +0.158 C 
BRANCH  15  16
ATOM     16  C   ASN A   7     -12.425  -3.214  18.630  0.00  0.00    +0.241 C 
ATOM     17  N   VAL A   8     -12.220  -3.261  19.942  0.00  0.00    -0.298 N 
ATOM     18  H   VAL A   8     -11.250  -3.198  20.313  0.00  0.00    +0.150 HD
ATOM     19  O   ASN A   7     -13.543  -3.188  18.136  0.00  0.00    -0.273 OA
BRANCH  17  20
ATOM     20  CA  VAL A   8     -13.338  -3.400  20.870  0.00  0.00    +0.137 C 
BRANCH  20  21
ATOM     21  CB  VAL A   8     -13.001  -4.368  22.031  0.00  0.00    +0.026 C 
ATOM     22  CG2 VAL A   8     -14.157  -4.441  23.010  0.00  0.00    +0.002 C 
ATOM     23  CG1 VAL A   8     -12.664  -5.772  21.493  0.00  0.00    +0.002 C 
ENDBRANCH  20  21
BRANCH  20  24
ATOM     24  C   VAL A   8     -13.704  -2.009  21.401  0.00  0.00    +0.227 C 
ATOM     25  O   VAL A   8     -14.820  -1.520  21.178  0.00  0.00    -0.286 OA
ENDBRANCH  20  24
ENDBRANCH  17  20
ENDBRANCH  15  16
BRANCH  15  26
ATOM     26  CB  ASN A   7     -11.285  -1.961  16.800  0.00  0.00    +0.114 C 
BRANCH  26  27
ATOM     27  CG  ASN A   7     -10.032  -1.768  15.957  0.00  0.00    +0.222 C 
ATOM     28  ND2 ASN A   7      -8.871  -1.841  16.598  0.00  0.00    -0.329 N 
ATOM     29 HD21 ASN A   7      -8.852  -2.041  17.618  0.00  0.00    +0.145 HD
ATOM     30 HD22 ASN A   7      -7.981  -1.698  16.080  0.00  0.00    +0.145 HD
ATOM     31  OD1 ASN A   7     -10.112  -1.533  14.745  0.00  0.00    -0.275 OA
ENDBRANCH  26  27
ENDBRANCH  15  26
ENDBRANCH  13  15
ENDBRANCH  10  11
BRANCH  10  32
ATOM     32  CB  LEU A   6     -11.344  -7.893  17.143  0.00  0.00    +0.029 C 
BRANCH  32  33
ATOM     33  CG  LEU A   6     -12.780  -7.536  17.543  0.00  0.00    +0.002 C 
ATOM     34  CD2 LEU A   6     -13.477  -8.769  18.184  0.00  0.00    +0.000 C 
ATOM     35  CD1 LEU A   6     -13.571  -7.031  16.360  0.00  0.00    +0.000 C 
ENDBRANCH  32  33
ENDBRANCH  10  32
ENDBRANCH   7  10
ENDBRANCH   5   6
ENDBRANCH   3   5
BRANCH   1  36
ATOM     36  CA  VAL A   4      -6.884 -11.373  14.581  0.00  0.00    +0.149 C 
BRANCH  36  38
ATOM     37  C   GLY A   3      -5.108 -12.647  13.479  0.00  0.00    +0.243 C 
ATOM     38  N   VAL A   4      -5.709 -12.244  14.596  0.00  0.00    -0.297 N 
ATOM     39  H   VAL A   4      -5.330 -12.559  15.512  0.00  0.00    +0.150 HD
ATOM     40  O   GLY A   3      -5.499 -12.358  12.350  0.00  0.00    -0.273 OA
BRANCH  37  41
ATOM     41  CA  GLY A   3      -3.892 -13.520  13.659  0.00  0.00    +0.176 C 
BRANCH  41  44
ATOM     42  C   LEU A   2      -4.004 -15.868  13.086  0.00  0.00    +0.241 C 
ATOM     43  O   LEU A   2      -4.125 -16.186  14.252  0.00  0.00    -0.273 OA
ATOM     44  N   GLY A   3      -3.898 -14.606  12.696  0.00  0.00    -0.295 N 
ATOM     45  H   GLY A   3      -3.818 -14.390  11.682  0.00  0.00    +0.150 HD
BRANCH  42  46
ATOM     46  CA  LEU A   2      -3.966 -16.941  12.018  0.00  0.00    +0.149 C 
BRANCH  46  48
ATOM     47  C   VAL A   1      -1.694 -17.835  11.701  0.00  0.00    +0.238 C 
ATOM     48  N   LEU A   2      -2.866 -17.851  12.335  0.00  0.00    -0.297 N 
ATOM     49  H   LEU A   2      -3.006 -18.547  13.095  0.00  0.00    +0.150 HD
ATOM     50  O   VAL A   1      -1.433 -17.067  10.773  0.00  0.00    -0.274 OA
BRANCH  47  51
ATOM     51  CA  VAL A   1      -0.669 -18.869  12.156  0.00  0.00    +0.145 C 
BRANCH  51  52
ATOM     52  CB  VAL A   1       0.553 -18.180  12.767  0.00  0.00    +0.025 C 
ATOM     53  CG2 VAL A   1       0.122 -17.164  13.803  0.00  0.00    +0.002 C 
ATOM     54  CG1 VAL A   1       1.513 -19.227  13.389  0.00  0.00    +0.002 C 
ENDBRANCH  51  52
BRANCH  51  55
ATOM     55  N   VAL A   1      -0.315 -19.686  11.005  0.00  0.00    -0.238 NA
ATOM     56  H   VAL A   1       0.366 -19.316  10.312  0.00  0.00    +0.142 HD
ENDBRANCH  51  55
ENDBRANCH  47  51
ENDBRANCH  46  48
BRANCH  46  57
ATOM     57  CB  LEU A   2      -5.323 -17.675  11.985  0.00  0.00    +0.029 C 
BRANCH  57  58
ATOM     58  CG  LEU A   2      -5.713 -18.620  10.862  0.00  0.00    +0.002 C 
ATOM     59  CD2 LEU A   2      -7.065 -19.274  11.198  0.00  0.00    +0.000 C 
ATOM     60  CD1 LEU A   2      -5.759 -17.866   9.541  0.00  0.00    +0.000 C 
ENDBRANCH  57  58
ENDBRANCH  46  57
ENDBRANCH  42  46
ENDBRANCH  41  44
ENDBRANCH  37  41
ENDBRANCH  36  38
BRANCH  36  61
ATOM     61  CB  VAL A   4      -8.137 -12.089  15.115  0.00  0.00    +0.027 C 
ATOM     62  CG2 VAL A   4      -9.311 -11.113  15.227  0.00  0.00    +0.002 C 
ATOM     63  CG1 VAL A   4      -8.490 -13.283  14.242  0.00  0.00    +0.002 C 
ENDBRANCH  36  61
ENDBRANCH   1  36
TORSDOF 25
REMARK  Name = ../refined-set-2016/4xty/4xty_pocket.pdb
REMARK  239 active torsions:
REMARK  status: ('A' for Active; 'I' for Inactive)
REMARK    1  A    between atoms: _1  and  _3
REMARK    2  A    between atoms: _3  and  _4
REMARK    3  A    between atoms: _3  and  _6
REMARK    4  A    between atoms: _6  and  _7
REMARK    5  A    between atoms: _10  and  _12
REMARK    6  A    between atoms: _12  and  _13
REMARK    7  A    between atoms: _15  and  _17
REMARK    8  A    between atoms: _17  and  _18
REMARK    9  A    between atoms: _17  and  _20
REMARK   10  A    between atoms: _20  and  _21
REMARK   11  A    between atoms: _23  and  _25
REMARK   12  A    between atoms: _25  and  _26
REMARK   13  A    between atoms: _25  and  _28
REMARK   14  A    between atoms: _28  and  _29
REMARK   15  A    between atoms: _32  and  _34
REMARK   16  A    between atoms: _34  and  _35
REMARK   17  A    between atoms: _34  and  _37
REMARK   18  A    between atoms: _37  and  _38
REMARK   19  A    between atoms: _43  and  _45
REMARK   20  A    between atoms: _45  and  _46
REMARK   21  A    between atoms: _49  and  _51
REMARK   22  A    between atoms: _51  and  _52
REMARK   23  A    between atoms: _51  and  _54
REMARK   24  A    between atoms: _54  and  _55
REMARK   25  A    between atoms: _58  and  _60
REMARK   26  A    between atoms: _60  and  _61
REMARK   27  A    between atoms: _60  and  _63
REMARK   28  A    between atoms: _63  and  _64
REMARK   29  A    between atoms: _67  and  _69
REMARK   30  A    between atoms: _69  and  _70
REMARK   31  A    between atoms: _69  and  _72
REMARK   32  A    between atoms: _72  and  _73
REMARK   33  A    between atoms: _76  and  _78
REMARK   34  A    between atoms: _78  and  _79
REMARK   35  A    between atoms: _78  and  _81
REMARK   36  A    between atoms: _81  and  _82
REMARK   37  A    between atoms: _85  and  _87
REMARK   38  A    between atoms: _87  and  _88
REMARK   39  A    between atoms: _91  and  _93
REMARK   40  A    between atoms: _93  and  _94
REMARK   41  A    between atoms: _93  and  _96
REMARK   42  A    between atoms: _96  and  _97
REMARK   43  A    between atoms: _97  and  _98
REMARK   44  A    between atoms: _103  and  _105
REMARK   45  A    between atoms: _105  and  _106
REMARK   46  A    between atoms: _105  and  _108
REMARK   47  A    between atoms: _108  and  _109
REMARK   48  A    between atoms: _112  and  _114
REMARK   49  A    between atoms: _114  and  _115
REMARK   50  A    between atoms: _118  and  _120
REMARK   51  A    between atoms: _120  and  _121
REMARK   52  A    between atoms: _123  and  _125
REMARK   53  A    between atoms: _125  and  _126
REMARK   54  A    between atoms: _125  and  _128
REMARK   55  A    between atoms: _128  and  _129
REMARK   56  A    between atoms: _129  and  _130
REMARK   57  A    between atoms: _130  and  _131
REMARK   58  A    between atoms: _140  and  _142
REMARK   59  A    between atoms: _142  and  _143
REMARK   60  A    between atoms: _145  and  _147
REMARK   61  A    between atoms: _147  and  _148
REMARK   62  A    between atoms: _147  and  _150
REMARK   63  A    between atoms: _150  and  _151
REMARK   64  A    between atoms: _151  and  _152
REMARK   65  A    between atoms: _152  and  _153
REMARK   66  A    between atoms: _162  and  _164
REMARK   67  A    between atoms: _164  and  _165
REMARK   68  A    between atoms: _164  and  _167
REMARK   69  A    between atoms: _167  and  _168
REMARK   70  A    between atoms: _173  and  _175
REMARK   71  A    between atoms: _175  and  _176
REMARK   72  A    between atoms: _178  and  _180
REMARK   73  A    between atoms: _180  and  _181
REMARK   74  A    between atoms: _180  and  _183
REMARK   75  A    between atoms: _183  and  _184
REMARK   76  A    between atoms: _184  and  _185
REMARK   77  A    between atoms: _185  and  _186
REMARK   78  A    between atoms: _195  and  _197
REMARK   79  A    between atoms: _197  and  _198
REMARK   80  A    between atoms: _200  and  _202
REMARK   81  A    between atoms: _202  and  _203
REMARK   82  A    between atoms: _202  and  _205
REMARK   83  A    between atoms: _205  and  _206
REMARK   84  A    between atoms: _216  and  _218
REMARK   85  A    between atoms: _218  and  _219
REMARK   86  A    between atoms: _222  and  _224
REMARK   87  A    between atoms: _224  and  _225
REMARK   88  A    between atoms: _228  and  _230
REMARK   89  A    between atoms: _230  and  _231
REMARK   90  A    between atoms: _230  and  _233
REMARK   91  A    between atoms: _233  and  _234
REMARK   92  A    between atoms: _237  and  _239
REMARK   93  A    between atoms: _239  and  _240
REMARK   94  A    between atoms: _239  and  _242
REMARK   95  A    between atoms: _242  and  _243
REMARK   96  A    between atoms: _243  and  _244
REMARK   97  A    between atoms: _249  and  _251
REMARK   98  A    between atoms: _251  and  _252
REMARK   99  A    between atoms: _251  and  _254
REMARK  100  A    between atoms: _254  and  _255
REMARK  101  A    between atoms: _258  and  _260
REMARK  102  A    between atoms: _260  and  _261
REMARK  103  A    between atoms: _260  and  _263
REMARK  104  A    between atoms: _263  and  _264
REMARK  105  A    between atoms: _267  and  _269
REMARK  106  A    between atoms: _269  and  _270
REMARK  107  A    between atoms: _269  and  _272
REMARK  108  A    between atoms: _272  and  _273
REMARK  109  A    between atoms: _276  and  _278
REMARK  110  A    between atoms: _278  and  _279
REMARK  111  A    between atoms: _278  and  _281
REMARK  112  A    between atoms: _281  and  _282
REMARK  113  A    between atoms: _284  and  _286
REMARK  114  A    between atoms: _286  and  _287
REMARK  115  A    between atoms: _286  and  _289
REMARK  116  A    between atoms: _292  and  _294
REMARK  117  A    between atoms: _294  and  _295
REMARK  118  A    between atoms: _294  and  _297
REMARK  119  A    between atoms: _297  and  _298
REMARK  120  A    between atoms: _298  and  _299
REMARK  121  A    between atoms: _299  and  _300
REMARK  122  A    between atoms: _300  and  _301
REMARK  123  A    between atoms: _305  and  _307
REMARK  124  A    between atoms: _307  and  _308
REMARK  125  A    between atoms: _307  and  _310
REMARK  126  A    between atoms: _310  and  _311
REMARK  127  A    between atoms: _322  and  _323
REMARK  128  A    between atoms: _328  and  _330
REMARK  129  A    between atoms: _330  and  _331
REMARK  130  A    between atoms: _330  and  _333
REMARK  131  A    between atoms: _333  and  _334
REMARK  132  A    between atoms: _339  and  _341
REMARK  133  A    between atoms: _341  and  _342
REMARK  134  A    between atoms: _341  and  _344
REMARK  135  A    between atoms: _344  and  _345
REMARK  136  A    between atoms: _348  and  _350
REMARK  137  A    between atoms: _350  and  _351
REMARK  138  A    between atoms: _350  and  _353
REMARK  139  A    between atoms: _356  and  _358
REMARK  140  A    between atoms: _358  and  _359
REMARK  141  A    between atoms: _361  and  _363
REMARK  142  A    between atoms: _363  and  _364
REMARK  143  A    between atoms: _363  and  _366
REMARK  144  A    between atoms: _366  and  _367
REMARK  145  A    between atoms: _367  and  _368
REMARK  146  A    between atoms: _368  and  _369
REMARK  147  A    between atoms: _369  and  _370
REMARK  148  A    between atoms: _374  and  _376
REMARK  149  A    between atoms: _376  and  _377
REMARK  150  A    between atoms: _376  and  _379
REMARK  151  A    between atoms: _379  and  _380
REMARK  152  A    between atoms: _383  and  _385
REMARK  153  A    between atoms: _385  and  _386
REMARK  154  A    between atoms: _389  and  _391
REMARK  155  A    between atoms: _391  and  _392
REMARK  156  A    between atoms: _394  and  _396
REMARK  157  A    between atoms: _396  and  _397
REMARK  158  A    between atoms: _396  and  _399
REMARK  159  A    between atoms: _399  and  _400
REMARK  160  A    between atoms: _403  and  _405
REMARK  161  A    between atoms: _405  and  _406
REMARK  162  A    between atoms: _405  and  _408
REMARK  163  A    between atoms: _408  and  _409
REMARK  164  A    between atoms: _412  and  _414
REMARK  165  A    between atoms: _414  and  _415
REMARK  166  A    between atoms: _418  and  _420
REMARK  167  A    between atoms: _420  and  _421
REMARK  168  A    between atoms: _420  and  _423
REMARK  169  A    between atoms: _423  and  _424
REMARK  170  A    between atoms: _424  and  _425
REMARK  171  A    between atoms: _428  and  _430
REMARK  172  A    between atoms: _430  and  _431
REMARK  173  A    between atoms: _430  and  _433
REMARK  174  A    between atoms: _436  and  _438
REMARK  175  A    between atoms: _438  and  _439
REMARK  176  A    between atoms: _438  and  _441
REMARK  177  A    between atoms: _441  and  _442
REMARK  178  A    between atoms: _445  and  _447
REMARK  179  A    between atoms: _447  and  _448
REMARK  180  A    between atoms: _450  and  _452
REMARK  181  A    between atoms: _452  and  _453
REMARK  182  A    between atoms: _452  and  _455
REMARK  183  A    between atoms: _458  and  _460
REMARK  184  A    between atoms: _460  and  _461
REMARK  185  A    between atoms: _463  and  _465
REMARK  186  A    between atoms: _465  and  _466
REMARK  187  A    between atoms: _465  and  _468
REMARK  188  A    between atoms: _468  and  _469
REMARK  189  A    between atoms: _472  and  _474
REMARK  190  A    between atoms: _474  and  _475
REMARK  191  A    between atoms: _474  and  _477
REMARK  192  A    between atoms: _477  and  _478
REMARK  193  A    between atoms: _483  and  _485
REMARK  194  A    between atoms: _485  and  _486
REMARK  195  A    between atoms: _485  and  _488
REMARK  196  A    between atoms: _491  and  _493
REMARK  197  A    between atoms: _493  and  _494
REMARK  198  A    between atoms: _493  and  _496
REMARK  199  A    between atoms: _496  and  _497
REMARK  200  A    between atoms: _497  and  _498
REMARK  201  A    between atoms: _503  and  _505
REMARK  202  A    between atoms: _505  and  _506
REMARK  203  A    between atoms: _510  and  _511
REMARK  204  A    between atoms: _516  and  _518
REMARK  205  A    between atoms: _518  and  _519
REMARK  206  A    between atoms: _518  and  _521
REMARK  207  A    between atoms: _521  and  _522
REMARK  208  A    between atoms: _522  and  _523
REMARK  209  A    between atoms: _526  and  _528
REMARK  210  A    between atoms: _528  and  _529
REMARK  211  A    between atoms: _528  and  _531
REMARK  212  A    between atoms: _534  and  _536
REMARK  213  A    between atoms: _536  and  _537
REMARK  214  A    between atoms: _536  and  _539
REMARK  215  A    between atoms: _539  and  _540
REMARK  216  A    between atoms: _544  and  _545
REMARK  217  A    between atoms: _550  and  _552
REMARK  218  A    between atoms: _552  and  _553
REMARK  219  A    between atoms: _552  and  _555
REMARK  220  A    between atoms: _555  and  _556
REMARK  221  A    between atoms: _559  and  _561
REMARK  222  A    between atoms: _561  and  _562
REMARK  223  A    between atoms: _565  and  _567
REMARK  224  A    between atoms: _567  and  _568
REMARK  225  A    between atoms: _567  and  _570
REMARK  226  A    between atoms: _570  and  _571
REMARK  227  A    between atoms: _574  and  _576
REMARK  228  A    between atoms: _576  and  _577
REMARK  229  A    between atoms: _576  and  _579
REMARK  230  A    between atoms: _579  and  _580
REMARK  231  A    between atoms: _582  and  _584
REMARK  232  A    between atoms: _584  and  _585
REMARK  233  A    between atoms: _587  and  _589
REMARK  234  A    between atoms: _589  and  _590
REMARK  235  A    between atoms: _589  and  _592
REMARK  236  A    between atoms: _592  and  _593
REMARK  237  A    between atoms: _596  and  _598
REMARK  238  A    between atoms: _598  and  _599
REMARK  239  A    between atoms: _598  and  _601
REMARK                            x       y       z     vdW  Elec       q    Type
REMARK                         _______ _______ _______ _____ _____    ______ ____
ROOT
ATOM      1  C   GLN A   1     -10.594   2.393  19.456  0.00  0.00    +0.238 C 
ATOM      2  N   ALA A   2     -10.189   3.616  19.806  0.00  0.00    -0.297 N 
ATOM      3  H   ALA A   2      -9.536   3.737  20.607  0.00  0.00    +0.150 HD
ATOM      4  O   GLN A   1     -11.374   2.201  18.535  0.00  0.00    -0.274 OA
ENDROOT
BRANCH   2   5
ATOM      5  CA  ALA A   2     -10.663   4.793  19.063  0.00  0.00    +0.149 C 
ATOM      6  CB  ALA A   2     -10.505   6.066  19.906  0.00  0.00    +0.031 C 
BRANCH   5   7
ATOM      7  C   ALA A   2      -9.918   4.944  17.739  0.00  0.00    +0.244 C 
ATOM      8  O   ALA A   2      -8.717   4.711  17.686  0.00  0.00    -0.273 OA
ATOM      9  N   PRO A   3     -10.628   5.334  16.669  0.00  0.00    -0.273 N 
ATOM     10  CD  PRO A   3     -12.092   5.491  16.574  0.00  0.00    +0.094 C 
ATOM     11  CG  PRO A   3     -12.332   5.627  15.095  0.00  0.00    +0.024 C 
ATOM     12  CB  PRO A   3     -11.079   6.161  14.511  0.00  0.00    +0.030 C 
ATOM     13  CA  PRO A   3      -9.964   5.565  15.380  0.00  0.00    +0.140 C 
BRANCH  13  14
ATOM     14  C   PRO A   3      -8.784   6.536  15.503  0.00  0.00    +0.227 C 
ATOM     15  O   PRO A   3      -7.748   6.337  14.859  0.00  0.00    -0.286 OA
ENDBRANCH  13  14
ENDBRANCH   5   7
ENDBRANCH   2   5
BRANCH   1  16
ATOM     16  CA  GLN A   1     -10.045   1.209  20.243  0.00  0.00    +0.145 C 
BRANCH  16  17
ATOM     17  N   GLN A   1     -11.113   0.447  20.888  0.00  0.00    -0.238 NA
ATOM     18  H   GLN A   1     -11.256  -0.546  20.613  0.00  0.00    +0.142 HD
ENDBRANCH  16  17
BRANCH  16  19
ATOM     19  CB  GLN A   1      -9.242   0.301  19.300  0.00  0.00    +0.036 C 
BRANCH  19  20
ATOM     20  CG  GLN A   1      -7.919   0.926  18.828  0.00  0.00    +0.087 C 
BRANCH  20  21
ATOM     21  CD  GLN A   1      -6.821   0.758  19.857  0.00  0.00    +0.219 C 
ATOM     22  NE2 GLN A   1      -6.602   1.787  20.672  0.00  0.00    -0.329 N 
ATOM     23 HE21 GLN A   1      -5.873   1.719  21.410  0.00  0.00    +0.145 HD
ATOM     24 HE22 GLN A   1      -7.160   2.659  20.570  0.00  0.00    +0.145 HD
ATOM     25  OE1 GLN A   1      -6.190  -0.293  19.935  0.00  0.00    -0.275 OA
ENDBRANCH  20  21
ENDBRANCH  19  20
ENDBRANCH  16  19
ENDBRANCH   1  16
TORSDOF 8
REMARK  Name = ../refined-set-2016/4xty/4xty_pocket.pdb
REMARK  239 active torsions:
REMARK  status: ('A' for Active; 'I' for Inactive)
REMARK    1  A    between atoms: _1  and  _3
REMARK    2  A    between atoms: _3  and  _4
REMARK    3  A    between atoms: _3  and  _6
REMARK    4  A    between atoms: _6  and  _7
REMARK    5  A    between atoms: _10  and  _12
REMARK    6  A    between atoms: _12  and  _13
REMARK    7  A    between atoms: _15  and  _17
REMARK    8  A    between atoms: _17  and  _18
REMARK    9  A    between atoms: _17  and  _20
REMARK   10  A    between atoms: _20  and  _21
REMARK   11  A    between atoms: _23  and  _25
REMARK   12  A    between atoms: _25  and  _26
REMARK   13  A    between atoms: _25  and  _28
REMARK   14  A    between atoms: _28  and  _29
REMARK   15  A    between atoms: _32  and  _34
REMARK   16  A    between atoms: _34  and  _35
REMARK   17  A    between atoms: _34  and  _37
REMARK   18  A    between atoms: _37  and  _38
REMARK   19  A    between atoms: _43  and  _45
REMARK   20  A    between atoms: _45  and  _46
REMARK   21  A    between atoms: _49  and  _51
REMARK   22  A    between atoms: _51  and  _52
REMARK   23  A    between atoms: _51  and  _54
REMARK   24  A    between atoms: _54  and  _55
REMARK   25  A    between atoms: _58  and  _60
REMARK   26  A    between atoms: _60  and  _61
REMARK   27  A    between atoms: _60  and  _63
REMARK   28  A    between atoms: _63  and  _64
REMARK   29  A    between atoms: _67  and  _69
REMARK   30  A    between atoms: _69  and  _70
REMARK   31  A    between atoms: _69  and  _72
REMARK   32  A    between atoms: _72  and  _73
REMARK   33  A    between atoms: _76  and  _78
REMARK   34  A    between atoms: _78  and  _79
REMARK   35  A    between atoms: _78  and  _81
REMARK   36  A    between atoms: _81  and  _82
REMARK   37  A    between atoms: _85  and  _87
REMARK   38  A    between atoms: _87  and  _88
REMARK   39  A    between atoms: _91  and  _93
REMARK   40  A    between atoms: _93  and  _94
REMARK   41  A    between atoms: _93  and  _96
REMARK   42  A    between atoms: _96  and  _97
REMARK   43  A    between atoms: _97  and  _98
REMARK   44  A    between atoms: _103  and  _105
REMARK   45  A    between atoms: _105  and  _106
REMARK   46  A    between atoms: _105  and  _108
REMARK   47  A    between atoms: _108  and  _109
REMARK   48  A    between atoms: _112  and  _114
REMARK   49  A    between atoms: _114  and  _115
REMARK   50  A    between atoms: _118  and  _120
REMARK   51  A    between atoms: _120  and  _121
REMARK   52  A    between atoms: _123  and  _125
REMARK   53  A    between atoms: _125  and  _126
REMARK   54  A    between atoms: _125  and  _128
REMARK   55  A    between atoms: _128  and  _129
REMARK   56  A    between atoms: _129  and  _130
REMARK   57  A    between atoms: _130  and  _131
REMARK   58  A    between atoms: _140  and  _142
REMARK   59  A    between atoms: _142  and  _143
REMARK   60  A    between atoms: _145  and  _147
REMARK   61  A    between atoms: _147  and  _148
REMARK   62  A    between atoms: _147  and  _150
REMARK   63  A    between atoms: _150  and  _151
REMARK   64  A    between atoms: _151  and  _152
REMARK   65  A    between atoms: _152  and  _153
REMARK   66  A    between atoms: _162  and  _164
REMARK   67  A    between atoms: _164  and  _165
REMARK   68  A    between atoms: _164  and  _167
REMARK   69  A    between atoms: _167  and  _168
REMARK   70  A    between atoms: _173  and  _175
REMARK   71  A    between atoms: _175  and  _176
REMARK   72  A    between atoms: _178  and  _180
REMARK   73  A    between atoms: _180  and  _181
REMARK   74  A    between atoms: _180  and  _183
REMARK   75  A    between atoms: _183  and  _184
REMARK   76  A    between atoms: _184  and  _185
REMARK   77  A    between atoms: _185  and  _186
REMARK   78  A    between atoms: _195  and  _197
REMARK   79  A    between atoms: _197  and  _198
REMARK   80  A    between atoms: _200  and  _202
REMARK   81  A    between atoms: _202  and  _203
REMARK   82  A    between atoms: _202  and  _205
REMARK   83  A    between atoms: _205  and  _206
REMARK   84  A    between atoms: _216  and  _218
REMARK   85  A    between atoms: _218  and  _219
REMARK   86  A    between atoms: _222  and  _224
REMARK   87  A    between atoms: _224  and  _225
REMARK   88  A    between atoms: _228  and  _230
REMARK   89  A    between atoms: _230  and  _231
REMARK   90  A    between atoms: _230  and  _233
REMARK   91  A    between atoms: _233  and  _234
REMARK   92  A    between atoms: _237  and  _239
REMARK   93  A    between atoms: _239  and  _240
REMARK   94  A    between atoms: _239  and  _242
REMARK   95  A    between atoms: _242  and  _243
REMARK   96  A    between atoms: _243  and  _244
REMARK   97  A    between atoms: _249  and  _251
REMARK   98  A    between atoms: _251  and  _252
REMARK   99  A    between atoms: _251  and  _254
REMARK  100  A    between atoms: _254  and  _255
REMARK  101  A    between atoms: _258  and  _260
REMARK  102  A    between atoms: _260  and  _261
REMARK  103  A    between atoms: _260  and  _263
REMARK  104  A    between atoms: _263  and  _264
REMARK  105  A    between atoms: _267  and  _269
REMARK  106  A    between atoms: _269  and  _270
REMARK  107  A    between atoms: _269  and  _272
REMARK  108  A    between atoms: _272  and  _273
REMARK  109  A    between atoms: _276  and  _278
REMARK  110  A    between atoms: _278  and  _279
REMARK  111  A    between atoms: _278  and  _281
REMARK  112  A    between atoms: _281  and  _282
REMARK  113  A    between atoms: _284  and  _286
REMARK  114  A    between atoms: _286  and  _287
REMARK  115  A    between atoms: _286  and  _289
REMARK  116  A    between atoms: _292  and  _294
REMARK  117  A    between atoms: _294  and  _295
REMARK  118  A    between atoms: _294  and  _297
REMARK  119  A    between atoms: _297  and  _298
REMARK  120  A    between atoms: _298  and  _299
REMARK  121  A    between atoms: _299  and  _300
REMARK  122  A    between atoms: _300  and  _301
REMARK  123  A    between atoms: _305  and  _307
REMARK  124  A    between atoms: _307  and  _308
REMARK  125  A    between atoms: _307  and  _310
REMARK  126  A    between atoms: _310  and  _311
REMARK  127  A    between atoms: _322  and  _323
REMARK  128  A    between atoms: _328  and  _330
REMARK  129  A    between atoms: _330  and  _331
REMARK  130  A    between atoms: _330  and  _333
REMARK  131  A    between atoms: _333  and  _334
REMARK  132  A    between atoms: _339  and  _341
REMARK  133  A    between atoms: _341  and  _342
REMARK  134  A    between atoms: _341  and  _344
REMARK  135  A    between atoms: _344  and  _345
REMARK  136  A    between atoms: _348  and  _350
REMARK  137  A    between atoms: _350  and  _351
REMARK  138  A    between atoms: _350  and  _353
REMARK  139  A    between atoms: _356  and  _358
REMARK  140  A    between atoms: _358  and  _359
REMARK  141  A    between atoms: _361  and  _363
REMARK  142  A    between atoms: _363  and  _364
REMARK  143  A    between atoms: _363  and  _366
REMARK  144  A    between atoms: _366  and  _367
REMARK  145  A    between atoms: _367  and  _368
REMARK  146  A    between atoms: _368  and  _369
REMARK  147  A    between atoms: _369  and  _370
REMARK  148  A    between atoms: _374  and  _376
REMARK  149  A    between atoms: _376  and  _377
REMARK  150  A    between atoms: _376  and  _379
REMARK  151  A    between atoms: _379  and  _380
REMARK  152  A    between atoms: _383  and  _385
REMARK  153  A    between atoms: _385  and  _386
REMARK  154  A    between atoms: _389  and  _391
REMARK  155  A    between atoms: _391  and  _392
REMARK  156  A    between atoms: _394  and  _396
REMARK  157  A    between atoms: _396  and  _397
REMARK  158  A    between atoms: _396  and  _399
REMARK  159  A    between atoms: _399  and  _400
REMARK  160  A    between atoms: _403  and  _405
REMARK  161  A    between atoms: _405  and  _406
REMARK  162  A    between atoms: _405  and  _408
REMARK  163  A    between atoms: _408  and  _409
REMARK  164  A    between atoms: _412  and  _414
REMARK  165  A    between atoms: _414  and  _415
REMARK  166  A    between atoms: _418  and  _420
REMARK  167  A    between atoms: _420  and  _421
REMARK  168  A    between atoms: _420  and  _423
REMARK  169  A    between atoms: _423  and  _424
REMARK  170  A    between atoms: _424  and  _425
REMARK  171  A    between atoms: _428  and  _430
REMARK  172  A    between atoms: _430  and  _431
REMARK  173  A    between atoms: _430  and  _433
REMARK  174  A    between atoms: _436  and  _438
REMARK  175  A    between atoms: _438  and  _439
REMARK  176  A    between atoms: _438  and  _441
REMARK  177  A    between atoms: _441  and  _442
REMARK  178  A    between atoms: _445  and  _447
REMARK  179  A    between atoms: _447  and  _448
REMARK  180  A    between atoms: _450  and  _452
REMARK  181  A    between atoms: _452  and  _453
REMARK  182  A    between atoms: _452  and  _455
REMARK  183  A    between atoms: _458  and  _460
REMARK  184  A    between atoms: _460  and  _461
REMARK  185  A    between atoms: _463  and  _465
REMARK  186  A    between atoms: _465  and  _466
REMARK  187  A    between atoms: _465  and  _468
REMARK  188  A    between atoms: _468  and  _469
REMARK  189  A    between atoms: _472  and  _474
REMARK  190  A    between atoms: _474  and  _475
REMARK  191  A    between atoms: _474  and  _477
REMARK  192  A    between atoms: _477  and  _478
REMARK  193  A    between atoms: _483  and  _485
REMARK  194  A    between atoms: _485  and  _486
REMARK  195  A    between atoms: _485  and  _488
REMARK  196  A    between atoms: _491  and  _493
REMARK  197  A    between atoms: _493  and  _494
REMARK  198  A    between atoms: _493  and  _496
REMARK  199  A    between atoms: _496  and  _497
REMARK  200  A    between atoms: _497  and  _498
REMARK  201  A    between atoms: _503  and  _505
REMARK  202  A    between atoms: _505  and  _506
REMARK  203  A    between atoms: _510  and  _511
REMARK  204  A    between atoms: _516  and  _518
REMARK  205  A    between atoms: _518  and  _519
REMARK  206  A    between atoms: _518  and  _521
REMARK  207  A    between atoms: _521  and  _522
REMARK  208  A    between atoms: _522  and  _523
REMARK  209  A    between atoms: _526  and  _528
REMARK  210  A    between atoms: _528  and  _529
REMARK  211  A    between atoms: _528  and  _531
REMARK  212  A    between atoms: _534  and  _536
REMARK  213  A    between atoms: _536  and  _537
REMARK  214  A    between atoms: _536  and  _539
REMARK  215  A    between atoms: _539  and  _540
REMARK  216  A    between atoms: _544  and  _545
REMARK  217  A    between atoms: _550  and  _552
REMARK  218  A    between atoms: _552  and  _553
REMARK  219  A    between atoms: _552  and  _555
REMARK  220  A    between atoms: _555  and  _556
REMARK  221  A    between atoms: _559  and  _561
REMARK  222  A    between atoms: _561  and  _562
REMARK  223  A    between atoms: _565  and  _567
REMARK  224  A    between atoms: _567  and  _568
REMARK  225  A    between atoms: _567  and  _570
REMARK  226  A    between atoms: _570  and  _571
REMARK  227  A    between atoms: _574  and  _576
REMARK  228  A    between atoms: _576  and  _577
REMARK  229  A    between atoms: _576  and  _579
REMARK  230  A    between atoms: _579  and  _580
REMARK  231  A    between atoms: _582  and  _584
REMARK  232  A    between atoms: _584  and  _585
REMARK  233  A    between atoms: _587  and  _589
REMARK  234  A    between atoms: _589  and  _590
REMARK  235  A    between atoms: _589  and  _592
REMARK  236  A    between atoms: _592  and  _593
REMARK  237  A    between atoms: _596  and  _598
REMARK  238  A    between atoms: _598  and  _599
REMARK  239  A    between atoms: _598  and  _601
REMARK                            x       y       z     vdW  Elec       q    Type
REMARK                         _______ _______ _______ _____ _____    ______ ____
ROOT
ATOM      1  C   PRO A   4      -9.866   6.339   9.704  0.00  0.00    +0.241 C 
ATOM      2  O   PRO A   4     -11.012   6.779   9.754  0.00  0.00    -0.273 OA
ATOM      3  N   ASP A   5      -9.572   5.166   9.152  0.00  0.00    -0.297 N 
ATOM      4  H   ASP A   5      -8.591   4.820   9.160  0.00  0.00    +0.150 HD
ENDROOT
BRANCH   1   8
ATOM      5  C   ASP A   3      -7.535   5.469  11.594  0.00  0.00    +0.244 C 
ATOM      6  O   ASP A   3      -8.566   5.168  12.189  0.00  0.00    -0.273 OA
ATOM      7  N   PRO A   4      -7.514   6.394  10.616  0.00  0.00    -0.272 N 
ATOM      8  CA  PRO A   4      -8.727   7.161  10.299  0.00  0.00    +0.152 C 
ATOM      9  CB  PRO A   4      -8.227   8.200   9.284  0.00  0.00    +0.031 C 
ATOM     10  CG  PRO A   4      -7.002   7.589   8.687  0.00  0.00    +0.024 C 
ATOM     11  CD  PRO A   4      -6.358   6.835   9.813  0.00  0.00    +0.094 C 
BRANCH   5  12
ATOM     12  CA  ASP A   3      -6.222   4.750  11.917  0.00  0.00    +0.160 C 
BRANCH  12  14
ATOM     13  C   VAL A   2      -4.873   4.105  13.868  0.00  0.00    +0.241 C 
ATOM     14  N   ASP A   3      -6.009   4.588  13.362  0.00  0.00    -0.297 N 
ATOM     15  H   ASP A   3      -6.772   4.860  14.014  0.00  0.00    +0.150 HD
ATOM     16  O   VAL A   2      -3.895   3.856  13.172  0.00  0.00    -0.273 OA
BRANCH  13  17
ATOM     17  CA  VAL A   2      -4.802   3.841  15.371  0.00  0.00    +0.148 C 
BRANCH  17  20
ATOM     18  C   GLU A   1      -4.821   5.207  17.395  0.00  0.00    +0.238 C 
ATOM     19  O   GLU A   1      -3.686   4.840  17.698  0.00  0.00    -0.274 OA
ATOM     20  N   VAL A   2      -5.409   4.855  16.247  0.00  0.00    -0.297 N 
ATOM     21  H   VAL A   2      -6.306   5.303  15.970  0.00  0.00    +0.150 HD
BRANCH  18  22
ATOM     22  CA  GLU A   1      -5.620   6.085  18.366  0.00  0.00    +0.145 C 
BRANCH  22  23
ATOM     23  N   GLU A   1      -6.735   6.762  17.708  0.00  0.00    -0.238 NA
ATOM     24  H   GLU A   1      -7.667   6.300  17.701  0.00  0.00    +0.142 HD
ENDBRANCH  22  23
BRANCH  22  25
ATOM     25  CB  GLU A   1      -6.122   5.211  19.533  0.00  0.00    +0.038 C 
BRANCH  25  26
ATOM     26  CG  GLU A   1      -6.514   5.955  20.809  0.00  0.00    +0.116 C 
BRANCH  26  27
ATOM     27  CD  GLU A   1      -7.177   5.056  21.860  0.00  0.00    +0.365 C 
ATOM     28  OE2 GLU A   1      -6.934   5.272  23.067  0.00  0.00    -0.246 OA
ATOM     29  OE1 GLU A   1      -7.947   4.133  21.493  0.00  0.00    -0.246 OA
ENDBRANCH  26  27
ENDBRANCH  25  26
ENDBRANCH  22  25
ENDBRANCH  18  22
ENDBRANCH  17  20
BRANCH  17  30
ATOM     30  CB  VAL A   2      -5.428   2.439  15.625  0.00  0.00    +0.027 C 
ATOM     31  CG2 VAL A   2      -5.049   1.938  17.020  0.00  0.00    +0.002 C 
ATOM     32  CG1 VAL A   2      -6.938   2.465  15.446  0.00  0.00    +0.002 C 
ENDBRANCH  17  30
ENDBRANCH  13  17
ENDBRANCH  12  14
BRANCH  12  33
ATOM     33  CB  ASP A   3      -6.226   3.389  11.213  0.00  0.00    +0.143 C 
BRANCH  33  34
ATOM     34  CG  ASP A   3      -6.166   3.517   9.717  0.00  0.00    +0.367 C 
ATOM     35  OD2 ASP A   3      -5.042   3.552   9.181  0.00  0.00    -0.246 OA
ATOM     36  OD1 ASP A   3      -7.229   3.608   9.068  0.00  0.00    -0.246 OA
ENDBRANCH  33  34
ENDBRANCH  12  33
ENDBRANCH   5  12
ENDBRANCH   1   8
BRANCH   3  37
ATOM     37  CA  ASP A   5     -10.615   4.367   8.538  0.00  0.00    +0.160 C 
BRANCH  37  38
ATOM     38  C   ASP A   5     -11.066   3.238   9.457  0.00  0.00    +0.241 C 
ATOM     39  N   ALA A   6     -10.576   3.255  10.691  0.00  0.00    -0.297 N 
ATOM     40  H   ALA A   6      -9.900   3.996  10.965  0.00  0.00    +0.150 HD
ATOM     41  O   ASP A   5     -11.862   2.392   9.058  0.00  0.00    -0.273 OA
BRANCH  39  42
ATOM     42  CA  ALA A   6     -10.977   2.241  11.674  0.00  0.00    +0.149 C 
ATOM     43  CB  ALA A   6      -9.923   2.114  12.741  0.00  0.00    +0.031 C 
BRANCH  42  44
ATOM     44  C   ALA A   6     -12.318   2.541  12.324  0.00  0.00    +0.241 C 
ATOM     45  N   THR A   7     -12.905   1.506  12.917  0.00  0.00    -0.295 N 
ATOM     46  H   THR A   7     -12.565   0.544  12.715  0.00  0.00    +0.150 HD
ATOM     47  O   ALA A   6     -12.819   3.676  12.289  0.00  0.00    -0.273 OA
BRANCH  45  48
ATOM     48  CA  THR A   7     -14.011   1.690  13.841  0.00  0.00    +0.176 C 
BRANCH  48  49
ATOM     49  C   THR A   7     -13.871   0.655  14.949  0.00  0.00    +0.243 C 
ATOM     50  N   SER A   8     -14.771   0.679  15.928  0.00  0.00    -0.296 N 
ATOM     51  H   SER A   8     -15.549   1.368  15.887  0.00  0.00    +0.150 HD
ATOM     52  O   THR A   7     -12.938  -0.142  14.931  0.00  0.00    -0.273 OA
BRANCH  50  53
ATOM     53  CA  SER A   8     -14.689  -0.242  17.060  0.00  0.00    +0.166 C 
BRANCH  53  54
ATOM     54  CB  SER A   8     -16.103  -0.544  17.508  0.00  0.00    +0.229 C 
ATOM     55  OG  SER A   8     -17.040   0.161  17.128  0.00  0.00    -0.286 OA
ENDBRANCH  53  54
BRANCH  53  56
ATOM     56  C   SER A   8     -13.889   0.354  18.223  0.00  0.00    +0.165 C 
BRANCH  56  57
ATOM     57  O   SER A   8     -14.647   1.385  18.880  0.00  0.00    -0.380 OA
ATOM     58  H   SER A   8     -14.856   2.103  18.232  0.00  0.00    +0.211 HD
ENDBRANCH  56  57
ENDBRANCH  53  56
ENDBRANCH  50  53
ENDBRANCH  48  49
BRANCH  48  59
ATOM     59  CB  THR A   7     -15.395   1.582  13.140  0.00  0.00    +0.137 C 
ATOM     60  CG2 THR A   7     -15.703   0.156  12.706  0.00  0.00    +0.034 C 
BRANCH  59  61
ATOM     61  OG1 THR A   7     -16.413   2.044  14.038  0.00  0.00    -0.382 OA
ATOM     62  HG1 THR A   7     -17.296   1.977  13.596  0.00  0.00    +0.210 HD
ENDBRANCH  59  61
ENDBRANCH  48  59
ENDBRANCH  45  48
ENDBRANCH  42  44
ENDBRANCH  39  42
ENDBRANCH  37  38
BRANCH  37  63
ATOM     63  CB  ASP A   5     -10.146   3.794   7.200  0.00  0.00    +0.143 C 
BRANCH  63  64
ATOM     64  CG  ASP A   5      -9.842   4.872   6.195  0.00  0.00    +0.367 C 
ATOM     65  OD2 ASP A   5      -8.679   5.326   6.139  0.00  0.00    -0.246 OA
ATOM     66  OD1 ASP A   5     -10.778   5.279   5.480  0.00  0.00    -0.246 OA
ENDBRANCH  63  64
ENDBRANCH  37  63
ENDBRANCH   3  37
TORSDOF 27
REMARK  Name = ../refined-set-2016/4xty/4xty_pocket.pdb
REMARK  239 active torsions:
REMARK  status: ('A' for Active; 'I' for Inactive)
REMARK    1  A    between atoms: _1  and  _3
REMARK    2  A    between atoms: _3  and  _4
REMARK    3  A    between atoms: _3  and  _6
REMARK    4  A    between atoms: _6  and  _7
REMARK    5  A    between atoms: _10  and  _12
REMARK    6  A    between atoms: _12  and  _13
REMARK    7  A    between atoms: _15  and  _17
REMARK    8  A    between atoms: _17  and  _18
REMARK    9  A    between atoms: _17  and  _20
REMARK   10  A    between atoms: _20  and  _21
REMARK   11  A    between atoms: _23  and  _25
REMARK   12  A    between atoms: _25  and  _26
REMARK   13  A    between atoms: _25  and  _28
REMARK   14  A    between atoms: _28  and  _29
REMARK   15  A    between atoms: _32  and  _34
REMARK   16  A    between atoms: _34  and  _35
REMARK   17  A    between atoms: _34  and  _37
REMARK   18  A    between atoms: _37  and  _38
REMARK   19  A    between atoms: _43  and  _45
REMARK   20  A    between atoms: _45  and  _46
REMARK   21  A    between atoms: _49  and  _51
REMARK   22  A    between atoms: _51  and  _52
REMARK   23  A    between atoms: _51  and  _54
REMARK   24  A    between atoms: _54  and  _55
REMARK   25  A    between atoms: _58  and  _60
REMARK   26  A    between atoms: _60  and  _61
REMARK   27  A    between atoms: _60  and  _63
REMARK   28  A    between atoms: _63  and  _64
REMARK   29  A    between atoms: _67  and  _69
REMARK   30  A    between atoms: _69  and  _70
REMARK   31  A    between atoms: _69  and  _72
REMARK   32  A    between atoms: _72  and  _73
REMARK   33  A    between atoms: _76  and  _78
REMARK   34  A    between atoms: _78  and  _79
REMARK   35  A    between atoms: _78  and  _81
REMARK   36  A    between atoms: _81  and  _82
REMARK   37  A    between atoms: _85  and  _87
REMARK   38  A    between atoms: _87  and  _88
REMARK   39  A    between atoms: _91  and  _93
REMARK   40  A    between atoms: _93  and  _94
REMARK   41  A    between atoms: _93  and  _96
REMARK   42  A    between atoms: _96  and  _97
REMARK   43  A    between atoms: _97  and  _98
REMARK   44  A    between atoms: _103  and  _105
REMARK   45  A    between atoms: _105  and  _106
REMARK   46  A    between atoms: _105  and  _108
REMARK   47  A    between atoms: _108  and  _109
REMARK   48  A    between atoms: _112  and  _114
REMARK   49  A    between atoms: _114  and  _115
REMARK   50  A    between atoms: _118  and  _120
REMARK   51  A    between atoms: _120  and  _121
REMARK   52  A    between atoms: _123  and  _125
REMARK   53  A    between atoms: _125  and  _126
REMARK   54  A    between atoms: _125  and  _128
REMARK   55  A    between atoms: _128  and  _129
REMARK   56  A    between atoms: _129  and  _130
REMARK   57  A    between atoms: _130  and  _131
REMARK   58  A    between atoms: _140  and  _142
REMARK   59  A    between atoms: _142  and  _143
REMARK   60  A    between atoms: _145  and  _147
REMARK   61  A    between atoms: _147  and  _148
REMARK   62  A    between atoms: _147  and  _150
REMARK   63  A    between atoms: _150  and  _151
REMARK   64  A    between atoms: _151  and  _152
REMARK   65  A    between atoms: _152  and  _153
REMARK   66  A    between atoms: _162  and  _164
REMARK   67  A    between atoms: _164  and  _165
REMARK   68  A    between atoms: _164  and  _167
REMARK   69  A    between atoms: _167  and  _168
REMARK   70  A    between atoms: _173  and  _175
REMARK   71  A    between atoms: _175  and  _176
REMARK   72  A    between atoms: _178  and  _180
REMARK   73  A    between atoms: _180  and  _181
REMARK   74  A    between atoms: _180  and  _183
REMARK   75  A    between atoms: _183  and  _184
REMARK   76  A    between atoms: _184  and  _185
REMARK   77  A    between atoms: _185  and  _186
REMARK   78  A    between atoms: _195  and  _197
REMARK   79  A    between atoms: _197  and  _198
REMARK   80  A    between atoms: _200  and  _202
REMARK   81  A    between atoms: _202  and  _203
REMARK   82  A    between atoms: _202  and  _205
REMARK   83  A    between atoms: _205  and  _206
REMARK   84  A    between atoms: _216  and  _218
REMARK   85  A    between atoms: _218  and  _219
REMARK   86  A    between atoms: _222  and  _224
REMARK   87  A    between atoms: _224  and  _225
REMARK   88  A    between atoms: _228  and  _230
REMARK   89  A    between atoms: _230  and  _231
REMARK   90  A    between atoms: _230  and  _233
REMARK   91  A    between atoms: _233  and  _234
REMARK   92  A    between atoms: _237  and  _239
REMARK   93  A    between atoms: _239  and  _240
REMARK   94  A    between atoms: _239  and  _242
REMARK   95  A    between atoms: _242  and  _243
REMARK   96  A    between atoms: _243  and  _244
REMARK   97  A    between atoms: _249  and  _251
REMARK   98  A    between atoms: _251  and  _252
REMARK   99  A    between atoms: _251  and  _254
REMARK  100  A    between atoms: _254  and  _255
REMARK  101  A    between atoms: _258  and  _260
REMARK  102  A    between atoms: _260  and  _261
REMARK  103  A    between atoms: _260  and  _263
REMARK  104  A    between atoms: _263  and  _264
REMARK  105  A    between atoms: _267  and  _269
REMARK  106  A    between atoms: _269  and  _270
REMARK  107  A    between atoms: _269  and  _272
REMARK  108  A    between atoms: _272  and  _273
REMARK  109  A    between atoms: _276  and  _278
REMARK  110  A    between atoms: _278  and  _279
REMARK  111  A    between atoms: _278  and  _281
REMARK  112  A    between atoms: _281  and  _282
REMARK  113  A    between atoms: _284  and  _286
REMARK  114  A    between atoms: _286  and  _287
REMARK  115  A    between atoms: _286  and  _289
REMARK  116  A    between atoms: _292  and  _294
REMARK  117  A    between atoms: _294  and  _295
REMARK  118  A    between atoms: _294  and  _297
REMARK  119  A    between atoms: _297  and  _298
REMARK  120  A    between atoms: _298  and  _299
REMARK  121  A    between atoms: _299  and  _300
REMARK  122  A    between atoms: _300  and  _301
REMARK  123  A    between atoms: _305  and  _307
REMARK  124  A    between atoms: _307  and  _308
REMARK  125  A    between atoms: _307  and  _310
REMARK  126  A    between atoms: _310  and  _311
REMARK  127  A    between atoms: _322  and  _323
REMARK  128  A    between atoms: _328  and  _330
REMARK  129  A    between atoms: _330  and  _331
REMARK  130  A    between atoms: _330  and  _333
REMARK  131  A    between atoms: _333  and  _334
REMARK  132  A    between atoms: _339  and  _341
REMARK  133  A    between atoms: _341  and  _342
REMARK  134  A    between atoms: _341  and  _344
REMARK  135  A    between atoms: _344  and  _345
REMARK  136  A    between atoms: _348  and  _350
REMARK  137  A    between atoms: _350  and  _351
REMARK  138  A    between atoms: _350  and  _353
REMARK  139  A    between atoms: _356  and  _358
REMARK  140  A    between atoms: _358  and  _359
REMARK  141  A    between atoms: _361  and  _363
REMARK  142  A    between atoms: _363  and  _364
REMARK  143  A    between atoms: _363  and  _366
REMARK  144  A    between atoms: _366  and  _367
REMARK  145  A    between atoms: _367  and  _368
REMARK  146  A    between atoms: _368  and  _369
REMARK  147  A    between atoms: _369  and  _370
REMARK  148  A    between atoms: _374  and  _376
REMARK  149  A    between atoms: _376  and  _377
REMARK  150  A    between atoms: _376  and  _379
REMARK  151  A    between atoms: _379  and  _380
REMARK  152  A    between atoms: _383  and  _385
REMARK  153  A    between atoms: _385  and  _386
REMARK  154  A    between atoms: _389  and  _391
REMARK  155  A    between atoms: _391  and  _392
REMARK  156  A    between atoms: _394  and  _396
REMARK  157  A    between atoms: _396  and  _397
REMARK  158  A    between atoms: _396  and  _399
REMARK  159  A    between atoms: _399  and  _400
REMARK  160  A    between atoms: _403  and  _405
REMARK  161  A    between atoms: _405  and  _406
REMARK  162  A    between atoms: _405  and  _408
REMARK  163  A    between atoms: _408  and  _409
REMARK  164  A    between atoms: _412  and  _414
REMARK  165  A    between atoms: _414  and  _415
REMARK  166  A    between atoms: _418  and  _420
REMARK  167  A    between atoms: _420  and  _421
REMARK  168  A    between atoms: _420  and  _423
REMARK  169  A    between atoms: _423  and  _424
REMARK  170  A    between atoms: _424  and  _425
REMARK  171  A    between atoms: _428  and  _430
REMARK  172  A    between atoms: _430  and  _431
REMARK  173  A    between atoms: _430  and  _433
REMARK  174  A    between atoms: _436  and  _438
REMARK  175  A    between atoms: _438  and  _439
REMARK  176  A    between atoms: _438  and  _441
REMARK  177  A    between atoms: _441  and  _442
REMARK  178  A    between atoms: _445  and  _447
REMARK  179  A    between atoms: _447  and  _448
REMARK  180  A    between atoms: _450  and  _452
REMARK  181  A    between atoms: _452  and  _453
REMARK  182  A    between atoms: _452  and  _455
REMARK  183  A    between atoms: _458  and  _460
REMARK  184  A    between atoms: _460  and  _461
REMARK  185  A    between atoms: _463  and  _465
REMARK  186  A    between atoms: _465  and  _466
REMARK  187  A    between atoms: _465  and  _468
REMARK  188  A    between atoms: _468  and  _469
REMARK  189  A    between atoms: _472  and  _474
REMARK  190  A    between atoms: _474  and  _475
REMARK  191  A    between atoms: _474  and  _477
REMARK  192  A    between atoms: _477  and  _478
REMARK  193  A    between atoms: _483  and  _485
REMARK  194  A    between atoms: _485  and  _486
REMARK  195  A    between atoms: _485  and  _488
REMARK  196  A    between atoms: _491  and  _493
REMARK  197  A    between atoms: _493  and  _494
REMARK  198  A    between atoms: _493  and  _496
REMARK  199  A    between atoms: _496  and  _497
REMARK  200  A    between atoms: _497  and  _498
REMARK  201  A    between atoms: _503  and  _505
REMARK  202  A    between atoms: _505  and  _506
REMARK  203  A    between atoms: _510  and  _511
REMARK  204  A    between atoms: _516  and  _518
REMARK  205  A    between atoms: _518  and  _519
REMARK  206  A    between atoms: _518  and  _521
REMARK  207  A    between atoms: _521  and  _522
REMARK  208  A    between atoms: _522  and  _523
REMARK  209  A    between atoms: _526  and  _528
REMARK  210  A    between atoms: _528  and  _529
REMARK  211  A    between atoms: _528  and  _531
REMARK  212  A    between atoms: _534  and  _536
REMARK  213  A    between atoms: _536  and  _537
REMARK  214  A    between atoms: _536  and  _539
REMARK  215  A    between atoms: _539  and  _540
REMARK  216  A    between atoms: _544  and  _545
REMARK  217  A    between atoms: _550  and  _552
REMARK  218  A    between atoms: _552  and  _553
REMARK  219  A    between atoms: _552  and  _555
REMARK  220  A    between atoms: _555  and  _556
REMARK  221  A    between atoms: _559  and  _561
REMARK  222  A    between atoms: _561  and  _562
REMARK  223  A    between atoms: _565  and  _567
REMARK  224  A    between atoms: _567  and  _568
REMARK  225  A    between atoms: _567  and  _570
REMARK  226  A    between atoms: _570  and  _571
REMARK  227  A    between atoms: _574  and  _576
REMARK  228  A    between atoms: _576  and  _577
REMARK  229  A    between atoms: _576  and  _579
REMARK  230  A    between atoms: _579  and  _580
REMARK  231  A    between atoms: _582  and  _584
REMARK  232  A    between atoms: _584  and  _585
REMARK  233  A    between atoms: _587  and  _589
REMARK  234  A    between atoms: _589  and  _590
REMARK  235  A    between atoms: _589  and  _592
REMARK  236  A    between atoms: _592  and  _593
REMARK  237  A    between atoms: _596  and  _598
REMARK  238  A    between atoms: _598  and  _599
REMARK  239  A    between atoms: _598  and  _601
REMARK                            x       y       z     vdW  Elec       q    Type
REMARK                         _______ _______ _______ _____ _____    ______ ____
ROOT
ATOM      1  CA  ASP A   2      -6.317  -4.280  -1.383  0.00  0.00    +0.160 C 
ENDROOT
BRANCH   1   4
ATOM      2  C   GLY A   1      -5.461  -6.444  -2.101  0.00  0.00    +0.240 C 
ATOM      3  O   GLY A   1      -6.031  -7.050  -1.189  0.00  0.00    -0.274 OA
ATOM      4  N   ASP A   2      -5.531  -5.129  -2.267  0.00  0.00    -0.297 N 
ATOM      5  H   ASP A   2      -5.008  -4.692  -3.053  0.00  0.00    +0.150 HD
BRANCH   2   6
ATOM      6  CA  GLY A   1      -4.610  -7.184  -3.102  0.00  0.00    +0.169 C 
BRANCH   6   7
ATOM      7  N   GLY A   1      -4.498  -8.588  -2.780  0.00  0.00    -0.236 NA
ATOM      8  H   GLY A   1      -4.723  -8.918  -1.820  0.00  0.00    +0.142 HD
ENDBRANCH   6   7
ENDBRANCH   2   6
ENDBRANCH   1   4
BRANCH   1   9
ATOM      9  C   ASP A   2      -7.545  -3.777  -2.122  0.00  0.00    +0.241 C 
ATOM     10  N   VAL A   3      -8.716  -4.013  -1.552  0.00  0.00    -0.298 N 
ATOM     11  H   VAL A   3      -8.750  -4.477  -0.622  0.00  0.00    +0.150 HD
ATOM     12  O   ASP A   2      -7.431  -3.184  -3.187  0.00  0.00    -0.273 OA
BRANCH  10  13
ATOM     13  CA  VAL A   3      -9.955  -3.632  -2.210  0.00  0.00    +0.137 C 
BRANCH  13  14
ATOM     14  CB  VAL A   3     -11.032  -4.736  -2.072  0.00  0.00    +0.026 C 
ATOM     15  CG2 VAL A   3     -12.352  -4.274  -2.670  0.00  0.00    +0.002 C 
ATOM     16  CG1 VAL A   3     -10.568  -6.020  -2.722  0.00  0.00    +0.002 C 
ENDBRANCH  13  14
BRANCH  13  17
ATOM     17  C   VAL A   3     -10.510  -2.333  -1.646  0.00  0.00    +0.227 C 
ATOM     18  O   VAL A   3     -10.577  -2.130  -0.428  0.00  0.00    -0.286 OA
ENDBRANCH  13  17
ENDBRANCH  10  13
ENDBRANCH   1   9
BRANCH   1  19
ATOM     19  CB  ASP A   2      -5.484  -3.102  -0.882  0.00  0.00    +0.143 C 
BRANCH  19  20
ATOM     20  CG  ASP A   2      -4.206  -3.552  -0.188  0.00  0.00    +0.367 C 
ATOM     21  OD2 ASP A   2      -4.248  -4.577   0.528  0.00  0.00    -0.246 OA
ATOM     22  OD1 ASP A   2      -3.161  -2.896  -0.380  0.00  0.00    -0.246 OA
ENDBRANCH  19  20
ENDBRANCH   1  19
TORSDOF 9
REMARK  Name = ../refined-set-2016/4xty/4xty_pocket.pdb
REMARK  239 active torsions:
REMARK  status: ('A' for Active; 'I' for Inactive)
REMARK    1  A    between atoms: _1  and  _3
REMARK    2  A    between atoms: _3  and  _4
REMARK    3  A    between atoms: _3  and  _6
REMARK    4  A    between atoms: _6  and  _7
REMARK    5  A    between atoms: _10  and  _12
REMARK    6  A    between atoms: _12  and  _13
REMARK    7  A    between atoms: _15  and  _17
REMARK    8  A    between atoms: _17  and  _18
REMARK    9  A    between atoms: _17  and  _20
REMARK   10  A    between atoms: _20  and  _21
REMARK   11  A    between atoms: _23  and  _25
REMARK   12  A    between atoms: _25  and  _26
REMARK   13  A    between atoms: _25  and  _28
REMARK   14  A    between atoms: _28  and  _29
REMARK   15  A    between atoms: _32  and  _34
REMARK   16  A    between atoms: _34  and  _35
REMARK   17  A    between atoms: _34  and  _37
REMARK   18  A    between atoms: _37  and  _38
REMARK   19  A    between atoms: _43  and  _45
REMARK   20  A    between atoms: _45  and  _46
REMARK   21  A    between atoms: _49  and  _51
REMARK   22  A    between atoms: _51  and  _52
REMARK   23  A    between atoms: _51  and  _54
REMARK   24  A    between atoms: _54  and  _55
REMARK   25  A    between atoms: _58  and  _60
REMARK   26  A    between atoms: _60  and  _61
REMARK   27  A    between atoms: _60  and  _63
REMARK   28  A    between atoms: _63  and  _64
REMARK   29  A    between atoms: _67  and  _69
REMARK   30  A    between atoms: _69  and  _70
REMARK   31  A    between atoms: _69  and  _72
REMARK   32  A    between atoms: _72  and  _73
REMARK   33  A    between atoms: _76  and  _78
REMARK   34  A    between atoms: _78  and  _79
REMARK   35  A    between atoms: _78  and  _81
REMARK   36  A    between atoms: _81  and  _82
REMARK   37  A    between atoms: _85  and  _87
REMARK   38  A    between atoms: _87  and  _88
REMARK   39  A    between atoms: _91  and  _93
REMARK   40  A    between atoms: _93  and  _94
REMARK   41  A    between atoms: _93  and  _96
REMARK   42  A    between atoms: _96  and  _97
REMARK   43  A    between atoms: _97  and  _98
REMARK   44  A    between atoms: _103  and  _105
REMARK   45  A    between atoms: _105  and  _106
REMARK   46  A    between atoms: _105  and  _108
REMARK   47  A    between atoms: _108  and  _109
REMARK   48  A    between atoms: _112  and  _114
REMARK   49  A    between atoms: _114  and  _115
REMARK   50  A    between atoms: _118  and  _120
REMARK   51  A    between atoms: _120  and  _121
REMARK   52  A    between atoms: _123  and  _125
REMARK   53  A    between atoms: _125  and  _126
REMARK   54  A    between atoms: _125  and  _128
REMARK   55  A    between atoms: _128  and  _129
REMARK   56  A    between atoms: _129  and  _130
REMARK   57  A    between atoms: _130  and  _131
REMARK   58  A    between atoms: _140  and  _142
REMARK   59  A    between atoms: _142  and  _143
REMARK   60  A    between atoms: _145  and  _147
REMARK   61  A    between atoms: _147  and  _148
REMARK   62  A    between atoms: _147  and  _150
REMARK   63  A    between atoms: _150  and  _151
REMARK   64  A    between atoms: _151  and  _152
REMARK   65  A    between atoms: _152  and  _153
REMARK   66  A    between atoms: _162  and  _164
REMARK   67  A    between atoms: _164  and  _165
REMARK   68  A    between atoms: _164  and  _167
REMARK   69  A    between atoms: _167  and  _168
REMARK   70  A    between atoms: _173  and  _175
REMARK   71  A    between atoms: _175  and  _176
REMARK   72  A    between atoms: _178  and  _180
REMARK   73  A    between atoms: _180  and  _181
REMARK   74  A    between atoms: _180  and  _183
REMARK   75  A    between atoms: _183  and  _184
REMARK   76  A    between atoms: _184  and  _185
REMARK   77  A    between atoms: _185  and  _186
REMARK   78  A    between atoms: _195  and  _197
REMARK   79  A    between atoms: _197  and  _198
REMARK   80  A    between atoms: _200  and  _202
REMARK   81  A    between atoms: _202  and  _203
REMARK   82  A    between atoms: _202  and  _205
REMARK   83  A    between atoms: _205  and  _206
REMARK   84  A    between atoms: _216  and  _218
REMARK   85  A    between atoms: _218  and  _219
REMARK   86  A    between atoms: _222  and  _224
REMARK   87  A    between atoms: _224  and  _225
REMARK   88  A    between atoms: _228  and  _230
REMARK   89  A    between atoms: _230  and  _231
REMARK   90  A    between atoms: _230  and  _233
REMARK   91  A    between atoms: _233  and  _234
REMARK   92  A    between atoms: _237  and  _239
REMARK   93  A    between atoms: _239  and  _240
REMARK   94  A    between atoms: _239  and  _242
REMARK   95  A    between atoms: _242  and  _243
REMARK   96  A    between atoms: _243  and  _244
REMARK   97  A    between atoms: _249  and  _251
REMARK   98  A    between atoms: _251  and  _252
REMARK   99  A    between atoms: _251  and  _254
REMARK  100  A    between atoms: _254  and  _255
REMARK  101  A    between atoms: _258  and  _260
REMARK  102  A    between atoms: _260  and  _261
REMARK  103  A    between atoms: _260  and  _263
REMARK  104  A    between atoms: _263  and  _264
REMARK  105  A    between atoms: _267  and  _269
REMARK  106  A    between atoms: _269  and  _270
REMARK  107  A    between atoms: _269  and  _272
REMARK  108  A    between atoms: _272  and  _273
REMARK  109  A    between atoms: _276  and  _278
REMARK  110  A    between atoms: _278  and  _279
REMARK  111  A    between atoms: _278  and  _281
REMARK  112  A    between atoms: _281  and  _282
REMARK  113  A    between atoms: _284  and  _286
REMARK  114  A    between atoms: _286  and  _287
REMARK  115  A    between atoms: _286  and  _289
REMARK  116  A    between atoms: _292  and  _294
REMARK  117  A    between atoms: _294  and  _295
REMARK  118  A    between atoms: _294  and  _297
REMARK  119  A    between atoms: _297  and  _298
REMARK  120  A    between atoms: _298  and  _299
REMARK  121  A    between atoms: _299  and  _300
REMARK  122  A    between atoms: _300  and  _301
REMARK  123  A    between atoms: _305  and  _307
REMARK  124  A    between atoms: _307  and  _308
REMARK  125  A    between atoms: _307  and  _310
REMARK  126  A    between atoms: _310  and  _311
REMARK  127  A    between atoms: _322  and  _323
REMARK  128  A    between atoms: _328  and  _330
REMARK  129  A    between atoms: _330  and  _331
REMARK  130  A    between atoms: _330  and  _333
REMARK  131  A    between atoms: _333  and  _334
REMARK  132  A    between atoms: _339  and  _341
REMARK  133  A    between atoms: _341  and  _342
REMARK  134  A    between atoms: _341  and  _344
REMARK  135  A    between atoms: _344  and  _345
REMARK  136  A    between atoms: _348  and  _350
REMARK  137  A    between atoms: _350  and  _351
REMARK  138  A    between atoms: _350  and  _353
REMARK  139  A    between atoms: _356  and  _358
REMARK  140  A    between atoms: _358  and  _359
REMARK  141  A    between atoms: _361  and  _363
REMARK  142  A    between atoms: _363  and  _364
REMARK  143  A    between atoms: _363  and  _366
REMARK  144  A    between atoms: _366  and  _367
REMARK  145  A    between atoms: _367  and  _368
REMARK  146  A    between atoms: _368  and  _369
REMARK  147  A    between atoms: _369  and  _370
REMARK  148  A    between atoms: _374  and  _376
REMARK  149  A    between atoms: _376  and  _377
REMARK  150  A    between atoms: _376  and  _379
REMARK  151  A    between atoms: _379  and  _380
REMARK  152  A    between atoms: _383  and  _385
REMARK  153  A    between atoms: _385  and  _386
REMARK  154  A    between atoms: _389  and  _391
REMARK  155  A    between atoms: _391  and  _392
REMARK  156  A    between atoms: _394  and  _396
REMARK  157  A    between atoms: _396  and  _397
REMARK  158  A    between atoms: _396  and  _399
REMARK  159  A    between atoms: _399  and  _400
REMARK  160  A    between atoms: _403  and  _405
REMARK  161  A    between atoms: _405  and  _406
REMARK  162  A    between atoms: _405  and  _408
REMARK  163  A    between atoms: _408  and  _409
REMARK  164  A    between atoms: _412  and  _414
REMARK  165  A    between atoms: _414  and  _415
REMARK  166  A    between atoms: _418  and  _420
REMARK  167  A    between atoms: _420  and  _421
REMARK  168  A    between atoms: _420  and  _423
REMARK  169  A    between atoms: _423  and  _424
REMARK  170  A    between atoms: _424  and  _425
REMARK  171  A    between atoms: _428  and  _430
REMARK  172  A    between atoms: _430  and  _431
REMARK  173  A    between atoms: _430  and  _433
REMARK  174  A    between atoms: _436  and  _438
REMARK  175  A    between atoms: _438  and  _439
REMARK  176  A    between atoms: _438  and  _441
REMARK  177  A    between atoms: _441  and  _442
REMARK  178  A    between atoms: _445  and  _447
REMARK  179  A    between atoms: _447  and  _448
REMARK  180  A    between atoms: _450  and  _452
REMARK  181  A    between atoms: _452  and  _453
REMARK  182  A    between atoms: _452  and  _455
REMARK  183  A    between atoms: _458  and  _460
REMARK  184  A    between atoms: _460  and  _461
REMARK  185  A    between atoms: _463  and  _465
REMARK  186  A    between atoms: _465  and  _466
REMARK  187  A    between atoms: _465  and  _468
REMARK  188  A    between atoms: _468  and  _469
REMARK  189  A    between atoms: _472  and  _474
REMARK  190  A    between atoms: _474  and  _475
REMARK  191  A    between atoms: _474  and  _477
REMARK  192  A    between atoms: _477  and  _478
REMARK  193  A    between atoms: _483  and  _485
REMARK  194  A    between atoms: _485  and  _486
REMARK  195  A    between atoms: _485  and  _488
REMARK  196  A    between atoms: _491  and  _493
REMARK  197  A    between atoms: _493  and  _494
REMARK  198  A    between atoms: _493  and  _496
REMARK  199  A    between atoms: _496  and  _497
REMARK  200  A    between atoms: _497  and  _498
REMARK  201  A    between atoms: _503  and  _505
REMARK  202  A    between atoms: _505  and  _506
REMARK  203  A    between atoms: _510  and  _511
REMARK  204  A    between atoms: _516  and  _518
REMARK  205  A    between atoms: _518  and  _519
REMARK  206  A    between atoms: _518  and  _521
REMARK  207  A    between atoms: _521  and  _522
REMARK  208  A    between atoms: _522  and  _523
REMARK  209  A    between atoms: _526  and  _528
REMARK  210  A    between atoms: _528  and  _529
REMARK  211  A    between atoms: _528  and  _531
REMARK  212  A    between atoms: _534  and  _536
REMARK  213  A    between atoms: _536  and  _537
REMARK  214  A    between atoms: _536  and  _539
REMARK  215  A    between atoms: _539  and  _540
REMARK  216  A    between atoms: _544  and  _545
REMARK  217  A    between atoms: _550  and  _552
REMARK  218  A    between atoms: _552  and  _553
REMARK  219  A    between atoms: _552  and  _555
REMARK  220  A    between atoms: _555  and  _556
REMARK  221  A    between atoms: _559  and  _561
REMARK  222  A    between atoms: _561  and  _562
REMARK  223  A    between atoms: _565  and  _567
REMARK  224  A    between atoms: _567  and  _568
REMARK  225  A    between atoms: _567  and  _570
REMARK  226  A    between atoms: _570  and  _571
REMARK  227  A    between atoms: _574  and  _576
REMARK  228  A    between atoms: _576  and  _577
REMARK  229  A    between atoms: _576  and  _579
REMARK  230  A    between atoms: _579  and  _580
REMARK  231  A    between atoms: _582  and  _584
REMARK  232  A    between atoms: _584  and  _585
REMARK  233  A    between atoms: _587  and  _589
REMARK  234  A    between atoms: _589  and  _590
REMARK  235  A    between atoms: _589  and  _592
REMARK  236  A    between atoms: _592  and  _593
REMARK  237  A    between atoms: _596  and  _598
REMARK  238  A    between atoms: _598  and  _599
REMARK  239  A    between atoms: _598  and  _601
REMARK                            x       y       z     vdW  Elec       q    Type
REMARK                         _______ _______ _______ _____ _____    ______ ____
ROOT
ATOM      1  O   HOH     1       6.907 -10.248  19.496  0.00  0.00    +0.000 OA
ENDROOT
TORSDOF 0
REMARK  Name = ../refined-set-2016/4xty/4xty_pocket.pdb
REMARK  239 active torsions:
REMARK  status: ('A' for Active; 'I' for Inactive)
REMARK    1  A    between atoms: _1  and  _3
REMARK    2  A    between atoms: _3  and  _4
REMARK    3  A    between atoms: _3  and  _6
REMARK    4  A    between atoms: _6  and  _7
REMARK    5  A    between atoms: _10  and  _12
REMARK    6  A    between atoms: _12  and  _13
REMARK    7  A    between atoms: _15  and  _17
REMARK    8  A    between atoms: _17  and  _18
REMARK    9  A    between atoms: _17  and  _20
REMARK   10  A    between atoms: _20  and  _21
REMARK   11  A    between atoms: _23  and  _25
REMARK   12  A    between atoms: _25  and  _26
REMARK   13  A    between atoms: _25  and  _28
REMARK   14  A    between atoms: _28  and  _29
REMARK   15  A    between atoms: _32  and  _34
REMARK   16  A    between atoms: _34  and  _35
REMARK   17  A    between atoms: _34  and  _37
REMARK   18  A    between atoms: _37  and  _38
REMARK   19  A    between atoms: _43  and  _45
REMARK   20  A    between atoms: _45  and  _46
REMARK   21  A    between atoms: _49  and  _51
REMARK   22  A    between atoms: _51  and  _52
REMARK   23  A    between atoms: _51  and  _54
REMARK   24  A    between atoms: _54  and  _55
REMARK   25  A    between atoms: _58  and  _60
REMARK   26  A    between atoms: _60  and  _61
REMARK   27  A    between atoms: _60  and  _63
REMARK   28  A    between atoms: _63  and  _64
REMARK   29  A    between atoms: _67  and  _69
REMARK   30  A    between atoms: _69  and  _70
REMARK   31  A    between atoms: _69  and  _72
REMARK   32  A    between atoms: _72  and  _73
REMARK   33  A    between atoms: _76  and  _78
REMARK   34  A    between atoms: _78  and  _79
REMARK   35  A    between atoms: _78  and  _81
REMARK   36  A    between atoms: _81  and  _82
REMARK   37  A    between atoms: _85  and  _87
REMARK   38  A    between atoms: _87  and  _88
REMARK   39  A    between atoms: _91  and  _93
REMARK   40  A    between atoms: _93  and  _94
REMARK   41  A    between atoms: _93  and  _96
REMARK   42  A    between atoms: _96  and  _97
REMARK   43  A    between atoms: _97  and  _98
REMARK   44  A    between atoms: _103  and  _105
REMARK   45  A    between atoms: _105  and  _106
REMARK   46  A    between atoms: _105  and  _108
REMARK   47  A    between atoms: _108  and  _109
REMARK   48  A    between atoms: _112  and  _114
REMARK   49  A    between atoms: _114  and  _115
REMARK   50  A    between atoms: _118  and  _120
REMARK   51  A    between atoms: _120  and  _121
REMARK   52  A    between atoms: _123  and  _125
REMARK   53  A    between atoms: _125  and  _126
REMARK   54  A    between atoms: _125  and  _128
REMARK   55  A    between atoms: _128  and  _129
REMARK   56  A    between atoms: _129  and  _130
REMARK   57  A    between atoms: _130  and  _131
REMARK   58  A    between atoms: _140  and  _142
REMARK   59  A    between atoms: _142  and  _143
REMARK   60  A    between atoms: _145  and  _147
REMARK   61  A    between atoms: _147  and  _148
REMARK   62  A    between atoms: _147  and  _150
REMARK   63  A    between atoms: _150  and  _151
REMARK   64  A    between atoms: _151  and  _152
REMARK   65  A    between atoms: _152  and  _153
REMARK   66  A    between atoms: _162  and  _164
REMARK   67  A    between atoms: _164  and  _165
REMARK   68  A    between atoms: _164  and  _167
REMARK   69  A    between atoms: _167  and  _168
REMARK   70  A    between atoms: _173  and  _175
REMARK   71  A    between atoms: _175  and  _176
REMARK   72  A    between atoms: _178  and  _180
REMARK   73  A    between atoms: _180  and  _181
REMARK   74  A    between atoms: _180  and  _183
REMARK   75  A    between atoms: _183  and  _184
REMARK   76  A    between atoms: _184  and  _185
REMARK   77  A    between atoms: _185  and  _186
REMARK   78  A    between atoms: _195  and  _197
REMARK   79  A    between atoms: _197  and  _198
REMARK   80  A    between atoms: _200  and  _202
REMARK   81  A    between atoms: _202  and  _203
REMARK   82  A    between atoms: _202  and  _205
REMARK   83  A    between atoms: _205  and  _206
REMARK   84  A    between atoms: _216  and  _218
REMARK   85  A    between atoms: _218  and  _219
REMARK   86  A    between atoms: _222  and  _224
REMARK   87  A    between atoms: _224  and  _225
REMARK   88  A    between atoms: _228  and  _230
REMARK   89  A    between atoms: _230  and  _231
REMARK   90  A    between atoms: _230  and  _233
REMARK   91  A    between atoms: _233  and  _234
REMARK   92  A    between atoms: _237  and  _239
REMARK   93  A    between atoms: _239  and  _240
REMARK   94  A    between atoms: _239  and  _242
REMARK   95  A    between atoms: _242  and  _243
REMARK   96  A    between atoms: _243  and  _244
REMARK   97  A    between atoms: _249  and  _251
REMARK   98  A    between atoms: _251  and  _252
REMARK   99  A    between atoms: _251  and  _254
REMARK  100  A    between atoms: _254  and  _255
REMARK  101  A    between atoms: _258  and  _260
REMARK  102  A    between atoms: _260  and  _261
REMARK  103  A    between atoms: _260  and  _263
REMARK  104  A    between atoms: _263  and  _264
REMARK  105  A    between atoms: _267  and  _269
REMARK  106  A    between atoms: _269  and  _270
REMARK  107  A    between atoms: _269  and  _272
REMARK  108  A    between atoms: _272  and  _273
REMARK  109  A    between atoms: _276  and  _278
REMARK  110  A    between atoms: _278  and  _279
REMARK  111  A    between atoms: _278  and  _281
REMARK  112  A    between atoms: _281  and  _282
REMARK  113  A    between atoms: _284  and  _286
REMARK  114  A    between atoms: _286  and  _287
REMARK  115  A    between atoms: _286  and  _289
REMARK  116  A    between atoms: _292  and  _294
REMARK  117  A    between atoms: _294  and  _295
REMARK  118  A    between atoms: _294  and  _297
REMARK  119  A    between atoms: _297  and  _298
REMARK  120  A    between atoms: _298  and  _299
REMARK  121  A    between atoms: _299  and  _300
REMARK  122  A    between atoms: _300  and  _301
REMARK  123  A    between atoms: _305  and  _307
REMARK  124  A    between atoms: _307  and  _308
REMARK  125  A    between atoms: _307  and  _310
REMARK  126  A    between atoms: _310  and  _311
REMARK  127  A    between atoms: _322  and  _323
REMARK  128  A    between atoms: _328  and  _330
REMARK  129  A    between atoms: _330  and  _331
REMARK  130  A    between atoms: _330  and  _333
REMARK  131  A    between atoms: _333  and  _334
REMARK  132  A    between atoms: _339  and  _341
REMARK  133  A    between atoms: _341  and  _342
REMARK  134  A    between atoms: _341  and  _344
REMARK  135  A    between atoms: _344  and  _345
REMARK  136  A    between atoms: _348  and  _350
REMARK  137  A    between atoms: _350  and  _351
REMARK  138  A    between atoms: _350  and  _353
REMARK  139  A    between atoms: _356  and  _358
REMARK  140  A    between atoms: _358  and  _359
REMARK  141  A    between atoms: _361  and  _363
REMARK  142  A    between atoms: _363  and  _364
REMARK  143  A    between atoms: _363  and  _366
REMARK  144  A    between atoms: _366  and  _367
REMARK  145  A    between atoms: _367  and  _368
REMARK  146  A    between atoms: _368  and  _369
REMARK  147  A    between atoms: _369  and  _370
REMARK  148  A    between atoms: _374  and  _376
REMARK  149  A    between atoms: _376  and  _377
REMARK  150  A    between atoms: _376  and  _379
REMARK  151  A    between atoms: _379  and  _380
REMARK  152  A    between atoms: _383  and  _385
REMARK  153  A    between atoms: _385  and  _386
REMARK  154  A    between atoms: _389  and  _391
REMARK  155  A    between atoms: _391  and  _392
REMARK  156  A    between atoms: _394  and  _396
REMARK  157  A    between atoms: _396  and  _397
REMARK  158  A    between atoms: _396  and  _399
REMARK  159  A    between atoms: _399  and  _400
REMARK  160  A    between atoms: _403  and  _405
REMARK  161  A    between atoms: _405  and  _406
REMARK  162  A    between atoms: _405  and  _408
REMARK  163  A    between atoms: _408  and  _409
REMARK  164  A    between atoms: _412  and  _414
REMARK  165  A    between atoms: _414  and  _415
REMARK  166  A    between atoms: _418  and  _420
REMARK  167  A    between atoms: _420  and  _421
REMARK  168  A    between atoms: _420  and  _423
REMARK  169  A    between atoms: _423  and  _424
REMARK  170  A    between atoms: _424  and  _425
REMARK  171  A    between atoms: _428  and  _430
REMARK  172  A    between atoms: _430  and  _431
REMARK  173  A    between atoms: _430  and  _433
REMARK  174  A    between atoms: _436  and  _438
REMARK  175  A    between atoms: _438  and  _439
REMARK  176  A    between atoms: _438  and  _441
REMARK  177  A    between atoms: _441  and  _442
REMARK  178  A    between atoms: _445  and  _447
REMARK  179  A    between atoms: _447  and  _448
REMARK  180  A    between atoms: _450  and  _452
REMARK  181  A    between atoms: _452  and  _453
REMARK  182  A    between atoms: _452  and  _455
REMARK  183  A    between atoms: _458  and  _460
REMARK  184  A    between atoms: _460  and  _461
REMARK  185  A    between atoms: _463  and  _465
REMARK  186  A    between atoms: _465  and  _466
REMARK  187  A    between atoms: _465  and  _468
REMARK  188  A    between atoms: _468  and  _469
REMARK  189  A    between atoms: _472  and  _474
REMARK  190  A    between atoms: _474  and  _475
REMARK  191  A    between atoms: _474  and  _477
REMARK  192  A    between atoms: _477  and  _478
REMARK  193  A    between atoms: _483  and  _485
REMARK  194  A    between atoms: _485  and  _486
REMARK  195  A    between atoms: _485  and  _488
REMARK  196  A    between atoms: _491  and  _493
REMARK  197  A    between atoms: _493  and  _494
REMARK  198  A    between atoms: _493  and  _496
REMARK  199  A    between atoms: _496  and  _497
REMARK  200  A    between atoms: _497  and  _498
REMARK  201  A    between atoms: _503  and  _505
REMARK  202  A    between atoms: _505  and  _506
REMARK  203  A    between atoms: _510  and  _511
REMARK  204  A    between atoms: _516  and  _518
REMARK  205  A    between atoms: _518  and  _519
REMARK  206  A    between atoms: _518  and  _521
REMARK  207  A    between atoms: _521  and  _522
REMARK  208  A    between atoms: _522  and  _523
REMARK  209  A    between atoms: _526  and  _528
REMARK  210  A    between atoms: _528  and  _529
REMARK  211  A    between atoms: _528  and  _531
REMARK  212  A    between atoms: _534  and  _536
REMARK  213  A    between atoms: _536  and  _537
REMARK  214  A    between atoms: _536  and  _539
REMARK  215  A    between atoms: _539  and  _540
REMARK  216  A    between atoms: _544  and  _545
REMARK  217  A    between atoms: _550  and  _552
REMARK  218  A    between atoms: _552  and  _553
REMARK  219  A    between atoms: _552  and  _555
REMARK  220  A    between atoms: _555  and  _556
REMARK  221  A    between atoms: _559  and  _561
REMARK  222  A    between atoms: _561  and  _562
REMARK  223  A    between atoms: _565  and  _567
REMARK  224  A    between atoms: _567  and  _568
REMARK  225  A    between atoms: _567  and  _570
REMARK  226  A    between atoms: _570  and  _571
REMARK  227  A    between atoms: _574  and  _576
REMARK  228  A    between atoms: _576  and  _577
REMARK  229  A    between atoms: _576  and  _579
REMARK  230  A    between atoms: _579  and  _580
REMARK  231  A    between atoms: _582  and  _584
REMARK  232  A    between atoms: _584  and  _585
REMARK  233  A    between atoms: _587  and  _589
REMARK  234  A    between atoms: _589  and  _590
REMARK  235  A    between atoms: _589  and  _592
REMARK  236  A    between atoms: _592  and  _593
REMARK  237  A    between atoms: _596  and  _598
REMARK  238  A    between atoms: _598  and  _599
REMARK  239  A    between atoms: _598  and  _601
REMARK                            x       y       z     vdW  Elec       q    Type
REMARK                         _______ _______ _______ _____ _____    ______ ____
ROOT
ATOM      1  O   HOH     1      -9.104  -5.398   0.854  0.00  0.00    +0.000 OA
ENDROOT
TORSDOF 0
REMARK  Name = ../refined-set-2016/4xty/4xty_pocket.pdb
REMARK  239 active torsions:
REMARK  status: ('A' for Active; 'I' for Inactive)
REMARK    1  A    between atoms: _1  and  _3
REMARK    2  A    between atoms: _3  and  _4
REMARK    3  A    between atoms: _3  and  _6
REMARK    4  A    between atoms: _6  and  _7
REMARK    5  A    between atoms: _10  and  _12
REMARK    6  A    between atoms: _12  and  _13
REMARK    7  A    between atoms: _15  and  _17
REMARK    8  A    between atoms: _17  and  _18
REMARK    9  A    between atoms: _17  and  _20
REMARK   10  A    between atoms: _20  and  _21
REMARK   11  A    between atoms: _23  and  _25
REMARK   12  A    between atoms: _25  and  _26
REMARK   13  A    between atoms: _25  and  _28
REMARK   14  A    between atoms: _28  and  _29
REMARK   15  A    between atoms: _32  and  _34
REMARK   16  A    between atoms: _34  and  _35
REMARK   17  A    between atoms: _34  and  _37
REMARK   18  A    between atoms: _37  and  _38
REMARK   19  A    between atoms: _43  and  _45
REMARK   20  A    between atoms: _45  and  _46
REMARK   21  A    between atoms: _49  and  _51
REMARK   22  A    between atoms: _51  and  _52
REMARK   23  A    between atoms: _51  and  _54
REMARK   24  A    between atoms: _54  and  _55
REMARK   25  A    between atoms: _58  and  _60
REMARK   26  A    between atoms: _60  and  _61
REMARK   27  A    between atoms: _60  and  _63
REMARK   28  A    between atoms: _63  and  _64
REMARK   29  A    between atoms: _67  and  _69
REMARK   30  A    between atoms: _69  and  _70
REMARK   31  A    between atoms: _69  and  _72
REMARK   32  A    between atoms: _72  and  _73
REMARK   33  A    between atoms: _76  and  _78
REMARK   34  A    between atoms: _78  and  _79
REMARK   35  A    between atoms: _78  and  _81
REMARK   36  A    between atoms: _81  and  _82
REMARK   37  A    between atoms: _85  and  _87
REMARK   38  A    between atoms: _87  and  _88
REMARK   39  A    between atoms: _91  and  _93
REMARK   40  A    between atoms: _93  and  _94
REMARK   41  A    between atoms: _93  and  _96
REMARK   42  A    between atoms: _96  and  _97
REMARK   43  A    between atoms: _97  and  _98
REMARK   44  A    between atoms: _103  and  _105
REMARK   45  A    between atoms: _105  and  _106
REMARK   46  A    between atoms: _105  and  _108
REMARK   47  A    between atoms: _108  and  _109
REMARK   48  A    between atoms: _112  and  _114
REMARK   49  A    between atoms: _114  and  _115
REMARK   50  A    between atoms: _118  and  _120
REMARK   51  A    between atoms: _120  and  _121
REMARK   52  A    between atoms: _123  and  _125
REMARK   53  A    between atoms: _125  and  _126
REMARK   54  A    between atoms: _125  and  _128
REMARK   55  A    between atoms: _128  and  _129
REMARK   56  A    between atoms: _129  and  _130
REMARK   57  A    between atoms: _130  and  _131
REMARK   58  A    between atoms: _140  and  _142
REMARK   59  A    between atoms: _142  and  _143
REMARK   60  A    between atoms: _145  and  _147
REMARK   61  A    between atoms: _147  and  _148
REMARK   62  A    between atoms: _147  and  _150
REMARK   63  A    between atoms: _150  and  _151
REMARK   64  A    between atoms: _151  and  _152
REMARK   65  A    between atoms: _152  and  _153
REMARK   66  A    between atoms: _162  and  _164
REMARK   67  A    between atoms: _164  and  _165
REMARK   68  A    between atoms: _164  and  _167
REMARK   69  A    between atoms: _167  and  _168
REMARK   70  A    between atoms: _173  and  _175
REMARK   71  A    between atoms: _175  and  _176
REMARK   72  A    between atoms: _178  and  _180
REMARK   73  A    between atoms: _180  and  _181
REMARK   74  A    between atoms: _180  and  _183
REMARK   75  A    between atoms: _183  and  _184
REMARK   76  A    between atoms: _184  and  _185
REMARK   77  A    between atoms: _185  and  _186
REMARK   78  A    between atoms: _195  and  _197
REMARK   79  A    between atoms: _197  and  _198
REMARK   80  A    between atoms: _200  and  _202
REMARK   81  A    between atoms: _202  and  _203
REMARK   82  A    between atoms: _202  and  _205
REMARK   83  A    between atoms: _205  and  _206
REMARK   84  A    between atoms: _216  and  _218
REMARK   85  A    between atoms: _218  and  _219
REMARK   86  A    between atoms: _222  and  _224
REMARK   87  A    between atoms: _224  and  _225
REMARK   88  A    between atoms: _228  and  _230
REMARK   89  A    between atoms: _230  and  _231
REMARK   90  A    between atoms: _230  and  _233
REMARK   91  A    between atoms: _233  and  _234
REMARK   92  A    between atoms: _237  and  _239
REMARK   93  A    between atoms: _239  and  _240
REMARK   94  A    between atoms: _239  and  _242
REMARK   95  A    between atoms: _242  and  _243
REMARK   96  A    between atoms: _243  and  _244
REMARK   97  A    between atoms: _249  and  _251
REMARK   98  A    between atoms: _251  and  _252
REMARK   99  A    between atoms: _251  and  _254
REMARK  100  A    between atoms: _254  and  _255
REMARK  101  A    between atoms: _258  and  _260
REMARK  102  A    between atoms: _260  and  _261
REMARK  103  A    between atoms: _260  and  _263
REMARK  104  A    between atoms: _263  and  _264
REMARK  105  A    between atoms: _267  and  _269
REMARK  106  A    between atoms: _269  and  _270
REMARK  107  A    between atoms: _269  and  _272
REMARK  108  A    between atoms: _272  and  _273
REMARK  109  A    between atoms: _276  and  _278
REMARK  110  A    between atoms: _278  and  _279
REMARK  111  A    between atoms: _278  and  _281
REMARK  112  A    between atoms: _281  and  _282
REMARK  113  A    between atoms: _284  and  _286
REMARK  114  A    between atoms: _286  and  _287
REMARK  115  A    between atoms: _286  and  _289
REMARK  116  A    between atoms: _292  and  _294
REMARK  117  A    between atoms: _294  and  _295
REMARK  118  A    between atoms: _294  and  _297
REMARK  119  A    between atoms: _297  and  _298
REMARK  120  A    between atoms: _298  and  _299
REMARK  121  A    between atoms: _299  and  _300
REMARK  122  A    between atoms: _300  and  _301
REMARK  123  A    between atoms: _305  and  _307
REMARK  124  A    between atoms: _307  and  _308
REMARK  125  A    between atoms: _307  and  _310
REMARK  126  A    between atoms: _310  and  _311
REMARK  127  A    between atoms: _322  and  _323
REMARK  128  A    between atoms: _328  and  _330
REMARK  129  A    between atoms: _330  and  _331
REMARK  130  A    between atoms: _330  and  _333
REMARK  131  A    between atoms: _333  and  _334
REMARK  132  A    between atoms: _339  and  _341
REMARK  133  A    between atoms: _341  and  _342
REMARK  134  A    between atoms: _341  and  _344
REMARK  135  A    between atoms: _344  and  _345
REMARK  136  A    between atoms: _348  and  _350
REMARK  137  A    between atoms: _350  and  _351
REMARK  138  A    between atoms: _350  and  _353
REMARK  139  A    between atoms: _356  and  _358
REMARK  140  A    between atoms: _358  and  _359
REMARK  141  A    between atoms: _361  and  _363
REMARK  142  A    between atoms: _363  and  _364
REMARK  143  A    between atoms: _363  and  _366
REMARK  144  A    between atoms: _366  and  _367
REMARK  145  A    between atoms: _367  and  _368
REMARK  146  A    between atoms: _368  and  _369
REMARK  147  A    between atoms: _369  and  _370
REMARK  148  A    between atoms: _374  and  _376
REMARK  149  A    between atoms: _376  and  _377
REMARK  150  A    between atoms: _376  and  _379
REMARK  151  A    between atoms: _379  and  _380
REMARK  152  A    between atoms: _383  and  _385
REMARK  153  A    between atoms: _385  and  _386
REMARK  154  A    between atoms: _389  and  _391
REMARK  155  A    between atoms: _391  and  _392
REMARK  156  A    between atoms: _394  and  _396
REMARK  157  A    between atoms: _396  and  _397
REMARK  158  A    between atoms: _396  and  _399
REMARK  159  A    between atoms: _399  and  _400
REMARK  160  A    between atoms: _403  and  _405
REMARK  161  A    between atoms: _405  and  _406
REMARK  162  A    between atoms: _405  and  _408
REMARK  163  A    between atoms: _408  and  _409
REMARK  164  A    between atoms: _412  and  _414
REMARK  165  A    between atoms: _414  and  _415
REMARK  166  A    between atoms: _418  and  _420
REMARK  167  A    between atoms: _420  and  _421
REMARK  168  A    between atoms: _420  and  _423
REMARK  169  A    between atoms: _423  and  _424
REMARK  170  A    between atoms: _424  and  _425
REMARK  171  A    between atoms: _428  and  _430
REMARK  172  A    between atoms: _430  and  _431
REMARK  173  A    between atoms: _430  and  _433
REMARK  174  A    between atoms: _436  and  _438
REMARK  175  A    between atoms: _438  and  _439
REMARK  176  A    between atoms: _438  and  _441
REMARK  177  A    between atoms: _441  and  _442
REMARK  178  A    between atoms: _445  and  _447
REMARK  179  A    between atoms: _447  and  _448
REMARK  180  A    between atoms: _450  and  _452
REMARK  181  A    between atoms: _452  and  _453
REMARK  182  A    between atoms: _452  and  _455
REMARK  183  A    between atoms: _458  and  _460
REMARK  184  A    between atoms: _460  and  _461
REMARK  185  A    between atoms: _463  and  _465
REMARK  186  A    between atoms: _465  and  _466
REMARK  187  A    between atoms: _465  and  _468
REMARK  188  A    between atoms: _468  and  _469
REMARK  189  A    between atoms: _472  and  _474
REMARK  190  A    between atoms: _474  and  _475
REMARK  191  A    between atoms: _474  and  _477
REMARK  192  A    between atoms: _477  and  _478
REMARK  193  A    between atoms: _483  and  _485
REMARK  194  A    between atoms: _485  and  _486
REMARK  195  A    between atoms: _485  and  _488
REMARK  196  A    between atoms: _491  and  _493
REMARK  197  A    between atoms: _493  and  _494
REMARK  198  A    between atoms: _493  and  _496
REMARK  199  A    between atoms: _496  and  _497
REMARK  200  A    between atoms: _497  and  _498
REMARK  201  A    between atoms: _503  and  _505
REMARK  202  A    between atoms: _505  and  _506
REMARK  203  A    between atoms: _510  and  _511
REMARK  204  A    between atoms: _516  and  _518
REMARK  205  A    between atoms: _518  and  _519
REMARK  206  A    between atoms: _518  and  _521
REMARK  207  A    between atoms: _521  and  _522
REMARK  208  A    between atoms: _522  and  _523
REMARK  209  A    between atoms: _526  and  _528
REMARK  210  A    between atoms: _528  and  _529
REMARK  211  A    between atoms: _528  and  _531
REMARK  212  A    between atoms: _534  and  _536
REMARK  213  A    between atoms: _536  and  _537
REMARK  214  A    between atoms: _536  and  _539
REMARK  215  A    between atoms: _539  and  _540
REMARK  216  A    between atoms: _544  and  _545
REMARK  217  A    between atoms: _550  and  _552
REMARK  218  A    between atoms: _552  and  _553
REMARK  219  A    between atoms: _552  and  _555
REMARK  220  A    between atoms: _555  and  _556
REMARK  221  A    between atoms: _559  and  _561
REMARK  222  A    between atoms: _561  and  _562
REMARK  223  A    between atoms: _565  and  _567
REMARK  224  A    between atoms: _567  and  _568
REMARK  225  A    between atoms: _567  and  _570
REMARK  226  A    between atoms: _570  and  _571
REMARK  227  A    between atoms: _574  and  _576
REMARK  228  A    between atoms: _576  and  _577
REMARK  229  A    between atoms: _576  and  _579
REMARK  230  A    between atoms: _579  and  _580
REMARK  231  A    between atoms: _582  and  _584
REMARK  232  A    between atoms: _584  and  _585
REMARK  233  A    between atoms: _587  and  _589
REMARK  234  A    between atoms: _589  and  _590
REMARK  235  A    between atoms: _589  and  _592
REMARK  236  A    between atoms: _592  and  _593
REMARK  237  A    between atoms: _596  and  _598
REMARK  238  A    between atoms: _598  and  _599
REMARK  239  A    between atoms: _598  and  _601
REMARK                            x       y       z     vdW  Elec       q    Type
REMARK                         _______ _______ _______ _____ _____    ______ ____
ROOT
ATOM      1  O   HOH     1      -8.171   0.913   8.670  0.00  0.00    +0.000 OA
ENDROOT
TORSDOF 0
REMARK  Name = ../refined-set-2016/4xty/4xty_pocket.pdb
REMARK  239 active torsions:
REMARK  status: ('A' for Active; 'I' for Inactive)
REMARK    1  A    between atoms: _1  and  _3
REMARK    2  A    between atoms: _3  and  _4
REMARK    3  A    between atoms: _3  and  _6
REMARK    4  A    between atoms: _6  and  _7
REMARK    5  A    between atoms: _10  and  _12
REMARK    6  A    between atoms: _12  and  _13
REMARK    7  A    between atoms: _15  and  _17
REMARK    8  A    between atoms: _17  and  _18
REMARK    9  A    between atoms: _17  and  _20
REMARK   10  A    between atoms: _20  and  _21
REMARK   11  A    between atoms: _23  and  _25
REMARK   12  A    between atoms: _25  and  _26
REMARK   13  A    between atoms: _25  and  _28
REMARK   14  A    between atoms: _28  and  _29
REMARK   15  A    between atoms: _32  and  _34
REMARK   16  A    between atoms: _34  and  _35
REMARK   17  A    between atoms: _34  and  _37
REMARK   18  A    between atoms: _37  and  _38
REMARK   19  A    between atoms: _43  and  _45
REMARK   20  A    between atoms: _45  and  _46
REMARK   21  A    between atoms: _49  and  _51
REMARK   22  A    between atoms: _51  and  _52
REMARK   23  A    between atoms: _51  and  _54
REMARK   24  A    between atoms: _54  and  _55
REMARK   25  A    between atoms: _58  and  _60
REMARK   26  A    between atoms: _60  and  _61
REMARK   27  A    between atoms: _60  and  _63
REMARK   28  A    between atoms: _63  and  _64
REMARK   29  A    between atoms: _67  and  _69
REMARK   30  A    between atoms: _69  and  _70
REMARK   31  A    between atoms: _69  and  _72
REMARK   32  A    between atoms: _72  and  _73
REMARK   33  A    between atoms: _76  and  _78
REMARK   34  A    between atoms: _78  and  _79
REMARK   35  A    between atoms: _78  and  _81
REMARK   36  A    between atoms: _81  and  _82
REMARK   37  A    between atoms: _85  and  _87
REMARK   38  A    between atoms: _87  and  _88
REMARK   39  A    between atoms: _91  and  _93
REMARK   40  A    between atoms: _93  and  _94
REMARK   41  A    between atoms: _93  and  _96
REMARK   42  A    between atoms: _96  and  _97
REMARK   43  A    between atoms: _97  and  _98
REMARK   44  A    between atoms: _103  and  _105
REMARK   45  A    between atoms: _105  and  _106
REMARK   46  A    between atoms: _105  and  _108
REMARK   47  A    between atoms: _108  and  _109
REMARK   48  A    between atoms: _112  and  _114
REMARK   49  A    between atoms: _114  and  _115
REMARK   50  A    between atoms: _118  and  _120
REMARK   51  A    between atoms: _120  and  _121
REMARK   52  A    between atoms: _123  and  _125
REMARK   53  A    between atoms: _125  and  _126
REMARK   54  A    between atoms: _125  and  _128
REMARK   55  A    between atoms: _128  and  _129
REMARK   56  A    between atoms: _129  and  _130
REMARK   57  A    between atoms: _130  and  _131
REMARK   58  A    between atoms: _140  and  _142
REMARK   59  A    between atoms: _142  and  _143
REMARK   60  A    between atoms: _145  and  _147
REMARK   61  A    between atoms: _147  and  _148
REMARK   62  A    between atoms: _147  and  _150
REMARK   63  A    between atoms: _150  and  _151
REMARK   64  A    between atoms: _151  and  _152
REMARK   65  A    between atoms: _152  and  _153
REMARK   66  A    between atoms: _162  and  _164
REMARK   67  A    between atoms: _164  and  _165
REMARK   68  A    between atoms: _164  and  _167
REMARK   69  A    between atoms: _167  and  _168
REMARK   70  A    between atoms: _173  and  _175
REMARK   71  A    between atoms: _175  and  _176
REMARK   72  A    between atoms: _178  and  _180
REMARK   73  A    between atoms: _180  and  _181
REMARK   74  A    between atoms: _180  and  _183
REMARK   75  A    between atoms: _183  and  _184
REMARK   76  A    between atoms: _184  and  _185
REMARK   77  A    between atoms: _185  and  _186
REMARK   78  A    between atoms: _195  and  _197
REMARK   79  A    between atoms: _197  and  _198
REMARK   80  A    between atoms: _200  and  _202
REMARK   81  A    between atoms: _202  and  _203
REMARK   82  A    between atoms: _202  and  _205
REMARK   83  A    between atoms: _205  and  _206
REMARK   84  A    between atoms: _216  and  _218
REMARK   85  A    between atoms: _218  and  _219
REMARK   86  A    between atoms: _222  and  _224
REMARK   87  A    between atoms: _224  and  _225
REMARK   88  A    between atoms: _228  and  _230
REMARK   89  A    between atoms: _230  and  _231
REMARK   90  A    between atoms: _230  and  _233
REMARK   91  A    between atoms: _233  and  _234
REMARK   92  A    between atoms: _237  and  _239
REMARK   93  A    between atoms: _239  and  _240
REMARK   94  A    between atoms: _239  and  _242
REMARK   95  A    between atoms: _242  and  _243
REMARK   96  A    between atoms: _243  and  _244
REMARK   97  A    between atoms: _249  and  _251
REMARK   98  A    between atoms: _251  and  _252
REMARK   99  A    between atoms: _251  and  _254
REMARK  100  A    between atoms: _254  and  _255
REMARK  101  A    between atoms: _258  and  _260
REMARK  102  A    between atoms: _260  and  _261
REMARK  103  A    between atoms: _260  and  _263
REMARK  104  A    between atoms: _263  and  _264
REMARK  105  A    between atoms: _267  and  _269
REMARK  106  A    between atoms: _269  and  _270
REMARK  107  A    between atoms: _269  and  _272
REMARK  108  A    between atoms: _272  and  _273
REMARK  109  A    between atoms: _276  and  _278
REMARK  110  A    between atoms: _278  and  _279
REMARK  111  A    between atoms: _278  and  _281
REMARK  112  A    between atoms: _281  and  _282
REMARK  113  A    between atoms: _284  and  _286
REMARK  114  A    between atoms: _286  and  _287
REMARK  115  A    between atoms: _286  and  _289
REMARK  116  A    between atoms: _292  and  _294
REMARK  117  A    between atoms: _294  and  _295
REMARK  118  A    between atoms: _294  and  _297
REMARK  119  A    between atoms: _297  and  _298
REMARK  120  A    between atoms: _298  and  _299
REMARK  121  A    between atoms: _299  and  _300
REMARK  122  A    between atoms: _300  and  _301
REMARK  123  A    between atoms: _305  and  _307
REMARK  124  A    between atoms: _307  and  _308
REMARK  125  A    between atoms: _307  and  _310
REMARK  126  A    between atoms: _310  and  _311
REMARK  127  A    between atoms: _322  and  _323
REMARK  128  A    between atoms: _328  and  _330
REMARK  129  A    between atoms: _330  and  _331
REMARK  130  A    between atoms: _330  and  _333
REMARK  131  A    between atoms: _333  and  _334
REMARK  132  A    between atoms: _339  and  _341
REMARK  133  A    between atoms: _341  and  _342
REMARK  134  A    between atoms: _341  and  _344
REMARK  135  A    between atoms: _344  and  _345
REMARK  136  A    between atoms: _348  and  _350
REMARK  137  A    between atoms: _350  and  _351
REMARK  138  A    between atoms: _350  and  _353
REMARK  139  A    between atoms: _356  and  _358
REMARK  140  A    between atoms: _358  and  _359
REMARK  141  A    between atoms: _361  and  _363
REMARK  142  A    between atoms: _363  and  _364
REMARK  143  A    between atoms: _363  and  _366
REMARK  144  A    between atoms: _366  and  _367
REMARK  145  A    between atoms: _367  and  _368
REMARK  146  A    between atoms: _368  and  _369
REMARK  147  A    between atoms: _369  and  _370
REMARK  148  A    between atoms: _374  and  _376
REMARK  149  A    between atoms: _376  and  _377
REMARK  150  A    between atoms: _376  and  _379
REMARK  151  A    between atoms: _379  and  _380
REMARK  152  A    between atoms: _383  and  _385
REMARK  153  A    between atoms: _385  and  _386
REMARK  154  A    between atoms: _389  and  _391
REMARK  155  A    between atoms: _391  and  _392
REMARK  156  A    between atoms: _394  and  _396
REMARK  157  A    between atoms: _396  and  _397
REMARK  158  A    between atoms: _396  and  _399
REMARK  159  A    between atoms: _399  and  _400
REMARK  160  A    between atoms: _403  and  _405
REMARK  161  A    between atoms: _405  and  _406
REMARK  162  A    between atoms: _405  and  _408
REMARK  163  A    between atoms: _408  and  _409
REMARK  164  A    between atoms: _412  and  _414
REMARK  165  A    between atoms: _414  and  _415
REMARK  166  A    between atoms: _418  and  _420
REMARK  167  A    between atoms: _420  and  _421
REMARK  168  A    between atoms: _420  and  _423
REMARK  169  A    between atoms: _423  and  _424
REMARK  170  A    between atoms: _424  and  _425
REMARK  171  A    between atoms: _428  and  _430
REMARK  172  A    between atoms: _430  and  _431
REMARK  173  A    between atoms: _430  and  _433
REMARK  174  A    between atoms: _436  and  _438
REMARK  175  A    between atoms: _438  and  _439
REMARK  176  A    between atoms: _438  and  _441
REMARK  177  A    between atoms: _441  and  _442
REMARK  178  A    between atoms: _445  and  _447
REMARK  179  A    between atoms: _447  and  _448
REMARK  180  A    between atoms: _450  and  _452
REMARK  181  A    between atoms: _452  and  _453
REMARK  182  A    between atoms: _452  and  _455
REMARK  183  A    between atoms: _458  and  _460
REMARK  184  A    between atoms: _460  and  _461
REMARK  185  A    between atoms: _463  and  _465
REMARK  186  A    between atoms: _465  and  _466
REMARK  187  A    between atoms: _465  and  _468
REMARK  188  A    between atoms: _468  and  _469
REMARK  189  A    between atoms: _472  and  _474
REMARK  190  A    between atoms: _474  and  _475
REMARK  191  A    between atoms: _474  and  _477
REMARK  192  A    between atoms: _477  and  _478
REMARK  193  A    between atoms: _483  and  _485
REMARK  194  A    between atoms: _485  and  _486
REMARK  195  A    between atoms: _485  and  _488
REMARK  196  A    between atoms: _491  and  _493
REMARK  197  A    between atoms: _493  and  _494
REMARK  198  A    between atoms: _493  and  _496
REMARK  199  A    between atoms: _496  and  _497
REMARK  200  A    between atoms: _497  and  _498
REMARK  201  A    between atoms: _503  and  _505
REMARK  202  A    between atoms: _505  and  _506
REMARK  203  A    between atoms: _510  and  _511
REMARK  204  A    between atoms: _516  and  _518
REMARK  205  A    between atoms: _518  and  _519
REMARK  206  A    between atoms: _518  and  _521
REMARK  207  A    between atoms: _521  and  _522
REMARK  208  A    between atoms: _522  and  _523
REMARK  209  A    between atoms: _526  and  _528
REMARK  210  A    between atoms: _528  and  _529
REMARK  211  A    between atoms: _528  and  _531
REMARK  212  A    between atoms: _534  and  _536
REMARK  213  A    between atoms: _536  and  _537
REMARK  214  A    between atoms: _536  and  _539
REMARK  215  A    between atoms: _539  and  _540
REMARK  216  A    between atoms: _544  and  _545
REMARK  217  A    between atoms: _550  and  _552
REMARK  218  A    between atoms: _552  and  _553
REMARK  219  A    between atoms: _552  and  _555
REMARK  220  A    between atoms: _555  and  _556
REMARK  221  A    between atoms: _559  and  _561
REMARK  222  A    between atoms: _561  and  _562
REMARK  223  A    between atoms: _565  and  _567
REMARK  224  A    between atoms: _567  and  _568
REMARK  225  A    between atoms: _567  and  _570
REMARK  226  A    between atoms: _570  and  _571
REMARK  227  A    between atoms: _574  and  _576
REMARK  228  A    between atoms: _576  and  _577
REMARK  229  A    between atoms: _576  and  _579
REMARK  230  A    between atoms: _579  and  _580
REMARK  231  A    between atoms: _582  and  _584
REMARK  232  A    between atoms: _584  and  _585
REMARK  233  A    between atoms: _587  and  _589
REMARK  234  A    between atoms: _589  and  _590
REMARK  235  A    between atoms: _589  and  _592
REMARK  236  A    between atoms: _592  and  _593
REMARK  237  A    between atoms: _596  and  _598
REMARK  238  A    between atoms: _598  and  _599
REMARK  239  A    between atoms: _598  and  _601
REMARK                            x       y       z     vdW  Elec       q    Type
REMARK                         _______ _______ _______ _____ _____    ______ ____
ROOT
ATOM      1  O   HOH     1      -3.914  -9.876   0.118  0.00  0.00    +0.000 OA
ENDROOT
TORSDOF 0
REMARK  Name = ../refined-set-2016/4xty/4xty_pocket.pdb
REMARK  239 active torsions:
REMARK  status: ('A' for Active; 'I' for Inactive)
REMARK    1  A    between atoms: _1  and  _3
REMARK    2  A    between atoms: _3  and  _4
REMARK    3  A    between atoms: _3  and  _6
REMARK    4  A    between atoms: _6  and  _7
REMARK    5  A    between atoms: _10  and  _12
REMARK    6  A    between atoms: _12  and  _13
REMARK    7  A    between atoms: _15  and  _17
REMARK    8  A    between atoms: _17  and  _18
REMARK    9  A    between atoms: _17  and  _20
REMARK   10  A    between atoms: _20  and  _21
REMARK   11  A    between atoms: _23  and  _25
REMARK   12  A    between atoms: _25  and  _26
REMARK   13  A    between atoms: _25  and  _28
REMARK   14  A    between atoms: _28  and  _29
REMARK   15  A    between atoms: _32  and  _34
REMARK   16  A    between atoms: _34  and  _35
REMARK   17  A    between atoms: _34  and  _37
REMARK   18  A    between atoms: _37  and  _38
REMARK   19  A    between atoms: _43  and  _45
REMARK   20  A    between atoms: _45  and  _46
REMARK   21  A    between atoms: _49  and  _51
REMARK   22  A    between atoms: _51  and  _52
REMARK   23  A    between atoms: _51  and  _54
REMARK   24  A    between atoms: _54  and  _55
REMARK   25  A    between atoms: _58  and  _60
REMARK   26  A    between atoms: _60  and  _61
REMARK   27  A    between atoms: _60  and  _63
REMARK   28  A    between atoms: _63  and  _64
REMARK   29  A    between atoms: _67  and  _69
REMARK   30  A    between atoms: _69  and  _70
REMARK   31  A    between atoms: _69  and  _72
REMARK   32  A    between atoms: _72  and  _73
REMARK   33  A    between atoms: _76  and  _78
REMARK   34  A    between atoms: _78  and  _79
REMARK   35  A    between atoms: _78  and  _81
REMARK   36  A    between atoms: _81  and  _82
REMARK   37  A    between atoms: _85  and  _87
REMARK   38  A    between atoms: _87  and  _88
REMARK   39  A    between atoms: _91  and  _93
REMARK   40  A    between atoms: _93  and  _94
REMARK   41  A    between atoms: _93  and  _96
REMARK   42  A    between atoms: _96  and  _97
REMARK   43  A    between atoms: _97  and  _98
REMARK   44  A    between atoms: _103  and  _105
REMARK   45  A    between atoms: _105  and  _106
REMARK   46  A    between atoms: _105  and  _108
REMARK   47  A    between atoms: _108  and  _109
REMARK   48  A    between atoms: _112  and  _114
REMARK   49  A    between atoms: _114  and  _115
REMARK   50  A    between atoms: _118  and  _120
REMARK   51  A    between atoms: _120  and  _121
REMARK   52  A    between atoms: _123  and  _125
REMARK   53  A    between atoms: _125  and  _126
REMARK   54  A    between atoms: _125  and  _128
REMARK   55  A    between atoms: _128  and  _129
REMARK   56  A    between atoms: _129  and  _130
REMARK   57  A    between atoms: _130  and  _131
REMARK   58  A    between atoms: _140  and  _142
REMARK   59  A    between atoms: _142  and  _143
REMARK   60  A    between atoms: _145  and  _147
REMARK   61  A    between atoms: _147  and  _148
REMARK   62  A    between atoms: _147  and  _150
REMARK   63  A    between atoms: _150  and  _151
REMARK   64  A    between atoms: _151  and  _152
REMARK   65  A    between atoms: _152  and  _153
REMARK   66  A    between atoms: _162  and  _164
REMARK   67  A    between atoms: _164  and  _165
REMARK   68  A    between atoms: _164  and  _167
REMARK   69  A    between atoms: _167  and  _168
REMARK   70  A    between atoms: _173  and  _175
REMARK   71  A    between atoms: _175  and  _176
REMARK   72  A    between atoms: _178  and  _180
REMARK   73  A    between atoms: _180  and  _181
REMARK   74  A    between atoms: _180  and  _183
REMARK   75  A    between atoms: _183  and  _184
REMARK   76  A    between atoms: _184  and  _185
REMARK   77  A    between atoms: _185  and  _186
REMARK   78  A    between atoms: _195  and  _197
REMARK   79  A    between atoms: _197  and  _198
REMARK   80  A    between atoms: _200  and  _202
REMARK   81  A    between atoms: _202  and  _203
REMARK   82  A    between atoms: _202  and  _205
REMARK   83  A    between atoms: _205  and  _206
REMARK   84  A    between atoms: _216  and  _218
REMARK   85  A    between atoms: _218  and  _219
REMARK   86  A    between atoms: _222  and  _224
REMARK   87  A    between atoms: _224  and  _225
REMARK   88  A    between atoms: _228  and  _230
REMARK   89  A    between atoms: _230  and  _231
REMARK   90  A    between atoms: _230  and  _233
REMARK   91  A    between atoms: _233  and  _234
REMARK   92  A    between atoms: _237  and  _239
REMARK   93  A    between atoms: _239  and  _240
REMARK   94  A    between atoms: _239  and  _242
REMARK   95  A    between atoms: _242  and  _243
REMARK   96  A    between atoms: _243  and  _244
REMARK   97  A    between atoms: _249  and  _251
REMARK   98  A    between atoms: _251  and  _252
REMARK   99  A    between atoms: _251  and  _254
REMARK  100  A    between atoms: _254  and  _255
REMARK  101  A    between atoms: _258  and  _260
REMARK  102  A    between atoms: _260  and  _261
REMARK  103  A    between atoms: _260  and  _263
REMARK  104  A    between atoms: _263  and  _264
REMARK  105  A    between atoms: _267  and  _269
REMARK  106  A    between atoms: _269  and  _270
REMARK  107  A    between atoms: _269  and  _272
REMARK  108  A    between atoms: _272  and  _273
REMARK  109  A    between atoms: _276  and  _278
REMARK  110  A    between atoms: _278  and  _279
REMARK  111  A    between atoms: _278  and  _281
REMARK  112  A    between atoms: _281  and  _282
REMARK  113  A    between atoms: _284  and  _286
REMARK  114  A    between atoms: _286  and  _287
REMARK  115  A    between atoms: _286  and  _289
REMARK  116  A    between atoms: _292  and  _294
REMARK  117  A    between atoms: _294  and  _295
REMARK  118  A    between atoms: _294  and  _297
REMARK  119  A    between atoms: _297  and  _298
REMARK  120  A    between atoms: _298  and  _299
REMARK  121  A    between atoms: _299  and  _300
REMARK  122  A    between atoms: _300  and  _301
REMARK  123  A    between atoms: _305  and  _307
REMARK  124  A    between atoms: _307  and  _308
REMARK  125  A    between atoms: _307  and  _310
REMARK  126  A    between atoms: _310  and  _311
REMARK  127  A    between atoms: _322  and  _323
REMARK  128  A    between atoms: _328  and  _330
REMARK  129  A    between atoms: _330  and  _331
REMARK  130  A    between atoms: _330  and  _333
REMARK  131  A    between atoms: _333  and  _334
REMARK  132  A    between atoms: _339  and  _341
REMARK  133  A    between atoms: _341  and  _342
REMARK  134  A    between atoms: _341  and  _344
REMARK  135  A    between atoms: _344  and  _345
REMARK  136  A    between atoms: _348  and  _350
REMARK  137  A    between atoms: _350  and  _351
REMARK  138  A    between atoms: _350  and  _353
REMARK  139  A    between atoms: _356  and  _358
REMARK  140  A    between atoms: _358  and  _359
REMARK  141  A    between atoms: _361  and  _363
REMARK  142  A    between atoms: _363  and  _364
REMARK  143  A    between atoms: _363  and  _366
REMARK  144  A    between atoms: _366  and  _367
REMARK  145  A    between atoms: _367  and  _368
REMARK  146  A    between atoms: _368  and  _369
REMARK  147  A    between atoms: _369  and  _370
REMARK  148  A    between atoms: _374  and  _376
REMARK  149  A    between atoms: _376  and  _377
REMARK  150  A    between atoms: _376  and  _379
REMARK  151  A    between atoms: _379  and  _380
REMARK  152  A    between atoms: _383  and  _385
REMARK  153  A    between atoms: _385  and  _386
REMARK  154  A    between atoms: _389  and  _391
REMARK  155  A    between atoms: _391  and  _392
REMARK  156  A    between atoms: _394  and  _396
REMARK  157  A    between atoms: _396  and  _397
REMARK  158  A    between atoms: _396  and  _399
REMARK  159  A    between atoms: _399  and  _400
REMARK  160  A    between atoms: _403  and  _405
REMARK  161  A    between atoms: _405  and  _406
REMARK  162  A    between atoms: _405  and  _408
REMARK  163  A    between atoms: _408  and  _409
REMARK  164  A    between atoms: _412  and  _414
REMARK  165  A    between atoms: _414  and  _415
REMARK  166  A    between atoms: _418  and  _420
REMARK  167  A    between atoms: _420  and  _421
REMARK  168  A    between atoms: _420  and  _423
REMARK  169  A    between atoms: _423  and  _424
REMARK  170  A    between atoms: _424  and  _425
REMARK  171  A    between atoms: _428  and  _430
REMARK  172  A    between atoms: _430  and  _431
REMARK  173  A    between atoms: _430  and  _433
REMARK  174  A    between atoms: _436  and  _438
REMARK  175  A    between atoms: _438  and  _439
REMARK  176  A    between atoms: _438  and  _441
REMARK  177  A    between atoms: _441  and  _442
REMARK  178  A    between atoms: _445  and  _447
REMARK  179  A    between atoms: _447  and  _448
REMARK  180  A    between atoms: _450  and  _452
REMARK  181  A    between atoms: _452  and  _453
REMARK  182  A    between atoms: _452  and  _455
REMARK  183  A    between atoms: _458  and  _460
REMARK  184  A    between atoms: _460  and  _461
REMARK  185  A    between atoms: _463  and  _465
REMARK  186  A    between atoms: _465  and  _466
REMARK  187  A    between atoms: _465  and  _468
REMARK  188  A    between atoms: _468  and  _469
REMARK  189  A    between atoms: _472  and  _474
REMARK  190  A    between atoms: _474  and  _475
REMARK  191  A    between atoms: _474  and  _477
REMARK  192  A    between atoms: _477  and  _478
REMARK  193  A    between atoms: _483  and  _485
REMARK  194  A    between atoms: _485  and  _486
REMARK  195  A    between atoms: _485  and  _488
REMARK  196  A    between atoms: _491  and  _493
REMARK  197  A    between atoms: _493  and  _494
REMARK  198  A    between atoms: _493  and  _496
REMARK  199  A    between atoms: _496  and  _497
REMARK  200  A    between atoms: _497  and  _498
REMARK  201  A    between atoms: _503  and  _505
REMARK  202  A    between atoms: _505  and  _506
REMARK  203  A    between atoms: _510  and  _511
REMARK  204  A    between atoms: _516  and  _518
REMARK  205  A    between atoms: _518  and  _519
REMARK  206  A    between atoms: _518  and  _521
REMARK  207  A    between atoms: _521  and  _522
REMARK  208  A    between atoms: _522  and  _523
REMARK  209  A    between atoms: _526  and  _528
REMARK  210  A    between atoms: _528  and  _529
REMARK  211  A    between atoms: _528  and  _531
REMARK  212  A    between atoms: _534  and  _536
REMARK  213  A    between atoms: _536  and  _537
REMARK  214  A    between atoms: _536  and  _539
REMARK  215  A    between atoms: _539  and  _540
REMARK  216  A    between atoms: _544  and  _545
REMARK  217  A    between atoms: _550  and  _552
REMARK  218  A    between atoms: _552  and  _553
REMARK  219  A    between atoms: _552  and  _555
REMARK  220  A    between atoms: _555  and  _556
REMARK  221  A    between atoms: _559  and  _561
REMARK  222  A    between atoms: _561  and  _562
REMARK  223  A    between atoms: _565  and  _567
REMARK  224  A    between atoms: _567  and  _568
REMARK  225  A    between atoms: _567  and  _570
REMARK  226  A    between atoms: _570  and  _571
REMARK  227  A    between atoms: _574  and  _576
REMARK  228  A    between atoms: _576  and  _577
REMARK  229  A    between atoms: _576  and  _579
REMARK  230  A    between atoms: _579  and  _580
REMARK  231  A    between atoms: _582  and  _584
REMARK  232  A    between atoms: _584  and  _585
REMARK  233  A    between atoms: _587  and  _589
REMARK  234  A    between atoms: _589  and  _590
REMARK  235  A    between atoms: _589  and  _592
REMARK  236  A    between atoms: _592  and  _593
REMARK  237  A    between atoms: _596  and  _598
REMARK  238  A    between atoms: _598  and  _599
REMARK  239  A    between atoms: _598  and  _601
REMARK                            x       y       z     vdW  Elec       q    Type
REMARK                         _______ _______ _______ _____ _____    ______ ____
ROOT
ATOM      1  O   HOH     1      -0.318  -3.941  17.372  0.00  0.00    +0.000 OA
ENDROOT
TORSDOF 0
REMARK  Name = ../refined-set-2016/4xty/4xty_pocket.pdb
REMARK  239 active torsions:
REMARK  status: ('A' for Active; 'I' for Inactive)
REMARK    1  A    between atoms: _1  and  _3
REMARK    2  A    between atoms: _3  and  _4
REMARK    3  A    between atoms: _3  and  _6
REMARK    4  A    between atoms: _6  and  _7
REMARK    5  A    between atoms: _10  and  _12
REMARK    6  A    between atoms: _12  and  _13
REMARK    7  A    between atoms: _15  and  _17
REMARK    8  A    between atoms: _17  and  _18
REMARK    9  A    between atoms: _17  and  _20
REMARK   10  A    between atoms: _20  and  _21
REMARK   11  A    between atoms: _23  and  _25
REMARK   12  A    between atoms: _25  and  _26
REMARK   13  A    between atoms: _25  and  _28
REMARK   14  A    between atoms: _28  and  _29
REMARK   15  A    between atoms: _32  and  _34
REMARK   16  A    between atoms: _34  and  _35
REMARK   17  A    between atoms: _34  and  _37
REMARK   18  A    between atoms: _37  and  _38
REMARK   19  A    between atoms: _43  and  _45
REMARK   20  A    between atoms: _45  and  _46
REMARK   21  A    between atoms: _49  and  _51
REMARK   22  A    between atoms: _51  and  _52
REMARK   23  A    between atoms: _51  and  _54
REMARK   24  A    between atoms: _54  and  _55
REMARK   25  A    between atoms: _58  and  _60
REMARK   26  A    between atoms: _60  and  _61
REMARK   27  A    between atoms: _60  and  _63
REMARK   28  A    between atoms: _63  and  _64
REMARK   29  A    between atoms: _67  and  _69
REMARK   30  A    between atoms: _69  and  _70
REMARK   31  A    between atoms: _69  and  _72
REMARK   32  A    between atoms: _72  and  _73
REMARK   33  A    between atoms: _76  and  _78
REMARK   34  A    between atoms: _78  and  _79
REMARK   35  A    between atoms: _78  and  _81
REMARK   36  A    between atoms: _81  and  _82
REMARK   37  A    between atoms: _85  and  _87
REMARK   38  A    between atoms: _87  and  _88
REMARK   39  A    between atoms: _91  and  _93
REMARK   40  A    between atoms: _93  and  _94
REMARK   41  A    between atoms: _93  and  _96
REMARK   42  A    between atoms: _96  and  _97
REMARK   43  A    between atoms: _97  and  _98
REMARK   44  A    between atoms: _103  and  _105
REMARK   45  A    between atoms: _105  and  _106
REMARK   46  A    between atoms: _105  and  _108
REMARK   47  A    between atoms: _108  and  _109
REMARK   48  A    between atoms: _112  and  _114
REMARK   49  A    between atoms: _114  and  _115
REMARK   50  A    between atoms: _118  and  _120
REMARK   51  A    between atoms: _120  and  _121
REMARK   52  A    between atoms: _123  and  _125
REMARK   53  A    between atoms: _125  and  _126
REMARK   54  A    between atoms: _125  and  _128
REMARK   55  A    between atoms: _128  and  _129
REMARK   56  A    between atoms: _129  and  _130
REMARK   57  A    between atoms: _130  and  _131
REMARK   58  A    between atoms: _140  and  _142
REMARK   59  A    between atoms: _142  and  _143
REMARK   60  A    between atoms: _145  and  _147
REMARK   61  A    between atoms: _147  and  _148
REMARK   62  A    between atoms: _147  and  _150
REMARK   63  A    between atoms: _150  and  _151
REMARK   64  A    between atoms: _151  and  _152
REMARK   65  A    between atoms: _152  and  _153
REMARK   66  A    between atoms: _162  and  _164
REMARK   67  A    between atoms: _164  and  _165
REMARK   68  A    between atoms: _164  and  _167
REMARK   69  A    between atoms: _167  and  _168
REMARK   70  A    between atoms: _173  and  _175
REMARK   71  A    between atoms: _175  and  _176
REMARK   72  A    between atoms: _178  and  _180
REMARK   73  A    between atoms: _180  and  _181
REMARK   74  A    between atoms: _180  and  _183
REMARK   75  A    between atoms: _183  and  _184
REMARK   76  A    between atoms: _184  and  _185
REMARK   77  A    between atoms: _185  and  _186
REMARK   78  A    between atoms: _195  and  _197
REMARK   79  A    between atoms: _197  and  _198
REMARK   80  A    between atoms: _200  and  _202
REMARK   81  A    between atoms: _202  and  _203
REMARK   82  A    between atoms: _202  and  _205
REMARK   83  A    between atoms: _205  and  _206
REMARK   84  A    between atoms: _216  and  _218
REMARK   85  A    between atoms: _218  and  _219
REMARK   86  A    between atoms: _222  and  _224
REMARK   87  A    between atoms: _224  and  _225
REMARK   88  A    between atoms: _228  and  _230
REMARK   89  A    between atoms: _230  and  _231
REMARK   90  A    between atoms: _230  and  _233
REMARK   91  A    between atoms: _233  and  _234
REMARK   92  A    between atoms: _237  and  _239
REMARK   93  A    between atoms: _239  and  _240
REMARK   94  A    between atoms: _239  and  _242
REMARK   95  A    between atoms: _242  and  _243
REMARK   96  A    between atoms: _243  and  _244
REMARK   97  A    between atoms: _249  and  _251
REMARK   98  A    between atoms: _251  and  _252
REMARK   99  A    between atoms: _251  and  _254
REMARK  100  A    between atoms: _254  and  _255
REMARK  101  A    between atoms: _258  and  _260
REMARK  102  A    between atoms: _260  and  _261
REMARK  103  A    between atoms: _260  and  _263
REMARK  104  A    between atoms: _263  and  _264
REMARK  105  A    between atoms: _267  and  _269
REMARK  106  A    between atoms: _269  and  _270
REMARK  107  A    between atoms: _269  and  _272
REMARK  108  A    between atoms: _272  and  _273
REMARK  109  A    between atoms: _276  and  _278
REMARK  110  A    between atoms: _278  and  _279
REMARK  111  A    between atoms: _278  and  _281
REMARK  112  A    between atoms: _281  and  _282
REMARK  113  A    between atoms: _284  and  _286
REMARK  114  A    between atoms: _286  and  _287
REMARK  115  A    between atoms: _286  and  _289
REMARK  116  A    between atoms: _292  and  _294
REMARK  117  A    between atoms: _294  and  _295
REMARK  118  A    between atoms: _294  and  _297
REMARK  119  A    between atoms: _297  and  _298
REMARK  120  A    between atoms: _298  and  _299
REMARK  121  A    between atoms: _299  and  _300
REMARK  122  A    between atoms: _300  and  _301
REMARK  123  A    between atoms: _305  and  _307
REMARK  124  A    between atoms: _307  and  _308
REMARK  125  A    between atoms: _307  and  _310
REMARK  126  A    between atoms: _310  and  _311
REMARK  127  A    between atoms: _322  and  _323
REMARK  128  A    between atoms: _328  and  _330
REMARK  129  A    between atoms: _330  and  _331
REMARK  130  A    between atoms: _330  and  _333
REMARK  131  A    between atoms: _333  and  _334
REMARK  132  A    between atoms: _339  and  _341
REMARK  133  A    between atoms: _341  and  _342
REMARK  134  A    between atoms: _341  and  _344
REMARK  135  A    between atoms: _344  and  _345
REMARK  136  A    between atoms: _348  and  _350
REMARK  137  A    between atoms: _350  and  _351
REMARK  138  A    between atoms: _350  and  _353
REMARK  139  A    between atoms: _356  and  _358
REMARK  140  A    between atoms: _358  and  _359
REMARK  141  A    between atoms: _361  and  _363
REMARK  142  A    between atoms: _363  and  _364
REMARK  143  A    between atoms: _363  and  _366
REMARK  144  A    between atoms: _366  and  _367
REMARK  145  A    between atoms: _367  and  _368
REMARK  146  A    between atoms: _368  and  _369
REMARK  147  A    between atoms: _369  and  _370
REMARK  148  A    between atoms: _374  and  _376
REMARK  149  A    between atoms: _376  and  _377
REMARK  150  A    between atoms: _376  and  _379
REMARK  151  A    between atoms: _379  and  _380
REMARK  152  A    between atoms: _383  and  _385
REMARK  153  A    between atoms: _385  and  _386
REMARK  154  A    between atoms: _389  and  _391
REMARK  155  A    between atoms: _391  and  _392
REMARK  156  A    between atoms: _394  and  _396
REMARK  157  A    between atoms: _396  and  _397
REMARK  158  A    between atoms: _396  and  _399
REMARK  159  A    between atoms: _399  and  _400
REMARK  160  A    between atoms: _403  and  _405
REMARK  161  A    between atoms: _405  and  _406
REMARK  162  A    between atoms: _405  and  _408
REMARK  163  A    between atoms: _408  and  _409
REMARK  164  A    between atoms: _412  and  _414
REMARK  165  A    between atoms: _414  and  _415
REMARK  166  A    between atoms: _418  and  _420
REMARK  167  A    between atoms: _420  and  _421
REMARK  168  A    between atoms: _420  and  _423
REMARK  169  A    between atoms: _423  and  _424
REMARK  170  A    between atoms: _424  and  _425
REMARK  171  A    between atoms: _428  and  _430
REMARK  172  A    between atoms: _430  and  _431
REMARK  173  A    between atoms: _430  and  _433
REMARK  174  A    between atoms: _436  and  _438
REMARK  175  A    between atoms: _438  and  _439
REMARK  176  A    between atoms: _438  and  _441
REMARK  177  A    between atoms: _441  and  _442
REMARK  178  A    between atoms: _445  and  _447
REMARK  179  A    between atoms: _447  and  _448
REMARK  180  A    between atoms: _450  and  _452
REMARK  181  A    between atoms: _452  and  _453
REMARK  182  A    between atoms: _452  and  _455
REMARK  183  A    between atoms: _458  and  _460
REMARK  184  A    between atoms: _460  and  _461
REMARK  185  A    between atoms: _463  and  _465
REMARK  186  A    between atoms: _465  and  _466
REMARK  187  A    between atoms: _465  and  _468
REMARK  188  A    between atoms: _468  and  _469
REMARK  189  A    between atoms: _472  and  _474
REMARK  190  A    between atoms: _474  and  _475
REMARK  191  A    between atoms: _474  and  _477
REMARK  192  A    between atoms: _477  and  _478
REMARK  193  A    between atoms: _483  and  _485
REMARK  194  A    between atoms: _485  and  _486
REMARK  195  A    between atoms: _485  and  _488
REMARK  196  A    between atoms: _491  and  _493
REMARK  197  A    between atoms: _493  and  _494
REMARK  198  A    between atoms: _493  and  _496
REMARK  199  A    between atoms: _496  and  _497
REMARK  200  A    between atoms: _497  and  _498
REMARK  201  A    between atoms: _503  and  _505
REMARK  202  A    between atoms: _505  and  _506
REMARK  203  A    between atoms: _510  and  _511
REMARK  204  A    between atoms: _516  and  _518
REMARK  205  A    between atoms: _518  and  _519
REMARK  206  A    between atoms: _518  and  _521
REMARK  207  A    between atoms: _521  and  _522
REMARK  208  A    between atoms: _522  and  _523
REMARK  209  A    between atoms: _526  and  _528
REMARK  210  A    between atoms: _528  and  _529
REMARK  211  A    between atoms: _528  and  _531
REMARK  212  A    between atoms: _534  and  _536
REMARK  213  A    between atoms: _536  and  _537
REMARK  214  A    between atoms: _536  and  _539
REMARK  215  A    between atoms: _539  and  _540
REMARK  216  A    between atoms: _544  and  _545
REMARK  217  A    between atoms: _550  and  _552
REMARK  218  A    between atoms: _552  and  _553
REMARK  219  A    between atoms: _552  and  _555
REMARK  220  A    between atoms: _555  and  _556
REMARK  221  A    between atoms: _559  and  _561
REMARK  222  A    between atoms: _561  and  _562
REMARK  223  A    between atoms: _565  and  _567
REMARK  224  A    between atoms: _567  and  _568
REMARK  225  A    between atoms: _567  and  _570
REMARK  226  A    between atoms: _570  and  _571
REMARK  227  A    between atoms: _574  and  _576
REMARK  228  A    between atoms: _576  and  _577
REMARK  229  A    between atoms: _576  and  _579
REMARK  230  A    between atoms: _579  and  _580
REMARK  231  A    between atoms: _582  and  _584
REMARK  232  A    between atoms: _584  and  _585
REMARK  233  A    between atoms: _587  and  _589
REMARK  234  A    between atoms: _589  and  _590
REMARK  235  A    between atoms: _589  and  _592
REMARK  236  A    between atoms: _592  and  _593
REMARK  237  A    between atoms: _596  and  _598
REMARK  238  A    between atoms: _598  and  _599
REMARK  239  A    between atoms: _598  and  _601
REMARK                            x       y       z     vdW  Elec       q    Type
REMARK                         _______ _______ _______ _____ _____    ______ ____
ROOT
ATOM      1  O   HOH     1       2.260  -1.727  16.617  0.00  0.00    +0.000 OA
ENDROOT
TORSDOF 0
REMARK  Name = ../refined-set-2016/4xty/4xty_pocket.pdb
REMARK  239 active torsions:
REMARK  status: ('A' for Active; 'I' for Inactive)
REMARK    1  A    between atoms: _1  and  _3
REMARK    2  A    between atoms: _3  and  _4
REMARK    3  A    between atoms: _3  and  _6
REMARK    4  A    between atoms: _6  and  _7
REMARK    5  A    between atoms: _10  and  _12
REMARK    6  A    between atoms: _12  and  _13
REMARK    7  A    between atoms: _15  and  _17
REMARK    8  A    between atoms: _17  and  _18
REMARK    9  A    between atoms: _17  and  _20
REMARK   10  A    between atoms: _20  and  _21
REMARK   11  A    between atoms: _23  and  _25
REMARK   12  A    between atoms: _25  and  _26
REMARK   13  A    between atoms: _25  and  _28
REMARK   14  A    between atoms: _28  and  _29
REMARK   15  A    between atoms: _32  and  _34
REMARK   16  A    between atoms: _34  and  _35
REMARK   17  A    between atoms: _34  and  _37
REMARK   18  A    between atoms: _37  and  _38
REMARK   19  A    between atoms: _43  and  _45
REMARK   20  A    between atoms: _45  and  _46
REMARK   21  A    between atoms: _49  and  _51
REMARK   22  A    between atoms: _51  and  _52
REMARK   23  A    between atoms: _51  and  _54
REMARK   24  A    between atoms: _54  and  _55
REMARK   25  A    between atoms: _58  and  _60
REMARK   26  A    between atoms: _60  and  _61
REMARK   27  A    between atoms: _60  and  _63
REMARK   28  A    between atoms: _63  and  _64
REMARK   29  A    between atoms: _67  and  _69
REMARK   30  A    between atoms: _69  and  _70
REMARK   31  A    between atoms: _69  and  _72
REMARK   32  A    between atoms: _72  and  _73
REMARK   33  A    between atoms: _76  and  _78
REMARK   34  A    between atoms: _78  and  _79
REMARK   35  A    between atoms: _78  and  _81
REMARK   36  A    between atoms: _81  and  _82
REMARK   37  A    between atoms: _85  and  _87
REMARK   38  A    between atoms: _87  and  _88
REMARK   39  A    between atoms: _91  and  _93
REMARK   40  A    between atoms: _93  and  _94
REMARK   41  A    between atoms: _93  and  _96
REMARK   42  A    between atoms: _96  and  _97
REMARK   43  A    between atoms: _97  and  _98
REMARK   44  A    between atoms: _103  and  _105
REMARK   45  A    between atoms: _105  and  _106
REMARK   46  A    between atoms: _105  and  _108
REMARK   47  A    between atoms: _108  and  _109
REMARK   48  A    between atoms: _112  and  _114
REMARK   49  A    between atoms: _114  and  _115
REMARK   50  A    between atoms: _118  and  _120
REMARK   51  A    between atoms: _120  and  _121
REMARK   52  A    between atoms: _123  and  _125
REMARK   53  A    between atoms: _125  and  _126
REMARK   54  A    between atoms: _125  and  _128
REMARK   55  A    between atoms: _128  and  _129
REMARK   56  A    between atoms: _129  and  _130
REMARK   57  A    between atoms: _130  and  _131
REMARK   58  A    between atoms: _140  and  _142
REMARK   59  A    between atoms: _142  and  _143
REMARK   60  A    between atoms: _145  and  _147
REMARK   61  A    between atoms: _147  and  _148
REMARK   62  A    between atoms: _147  and  _150
REMARK   63  A    between atoms: _150  and  _151
REMARK   64  A    between atoms: _151  and  _152
REMARK   65  A    between atoms: _152  and  _153
REMARK   66  A    between atoms: _162  and  _164
REMARK   67  A    between atoms: _164  and  _165
REMARK   68  A    between atoms: _164  and  _167
REMARK   69  A    between atoms: _167  and  _168
REMARK   70  A    between atoms: _173  and  _175
REMARK   71  A    between atoms: _175  and  _176
REMARK   72  A    between atoms: _178  and  _180
REMARK   73  A    between atoms: _180  and  _181
REMARK   74  A    between atoms: _180  and  _183
REMARK   75  A    between atoms: _183  and  _184
REMARK   76  A    between atoms: _184  and  _185
REMARK   77  A    between atoms: _185  and  _186
REMARK   78  A    between atoms: _195  and  _197
REMARK   79  A    between atoms: _197  and  _198
REMARK   80  A    between atoms: _200  and  _202
REMARK   81  A    between atoms: _202  and  _203
REMARK   82  A    between atoms: _202  and  _205
REMARK   83  A    between atoms: _205  and  _206
REMARK   84  A    between atoms: _216  and  _218
REMARK   85  A    between atoms: _218  and  _219
REMARK   86  A    between atoms: _222  and  _224
REMARK   87  A    between atoms: _224  and  _225
REMARK   88  A    between atoms: _228  and  _230
REMARK   89  A    between atoms: _230  and  _231
REMARK   90  A    between atoms: _230  and  _233
REMARK   91  A    between atoms: _233  and  _234
REMARK   92  A    between atoms: _237  and  _239
REMARK   93  A    between atoms: _239  and  _240
REMARK   94  A    between atoms: _239  and  _242
REMARK   95  A    between atoms: _242  and  _243
REMARK   96  A    between atoms: _243  and  _244
REMARK   97  A    between atoms: _249  and  _251
REMARK   98  A    between atoms: _251  and  _252
REMARK   99  A    between atoms: _251  and  _254
REMARK  100  A    between atoms: _254  and  _255
REMARK  101  A    between atoms: _258  and  _260
REMARK  102  A    between atoms: _260  and  _261
REMARK  103  A    between atoms: _260  and  _263
REMARK  104  A    between atoms: _263  and  _264
REMARK  105  A    between atoms: _267  and  _269
REMARK  106  A    between atoms: _269  and  _270
REMARK  107  A    between atoms: _269  and  _272
REMARK  108  A    between atoms: _272  and  _273
REMARK  109  A    between atoms: _276  and  _278
REMARK  110  A    between atoms: _278  and  _279
REMARK  111  A    between atoms: _278  and  _281
REMARK  112  A    between atoms: _281  and  _282
REMARK  113  A    between atoms: _284  and  _286
REMARK  114  A    between atoms: _286  and  _287
REMARK  115  A    between atoms: _286  and  _289
REMARK  116  A    between atoms: _292  and  _294
REMARK  117  A    between atoms: _294  and  _295
REMARK  118  A    between atoms: _294  and  _297
REMARK  119  A    between atoms: _297  and  _298
REMARK  120  A    between atoms: _298  and  _299
REMARK  121  A    between atoms: _299  and  _300
REMARK  122  A    between atoms: _300  and  _301
REMARK  123  A    between atoms: _305  and  _307
REMARK  124  A    between atoms: _307  and  _308
REMARK  125  A    between atoms: _307  and  _310
REMARK  126  A    between atoms: _310  and  _311
REMARK  127  A    between atoms: _322  and  _323
REMARK  128  A    between atoms: _328  and  _330
REMARK  129  A    between atoms: _330  and  _331
REMARK  130  A    between atoms: _330  and  _333
REMARK  131  A    between atoms: _333  and  _334
REMARK  132  A    between atoms: _339  and  _341
REMARK  133  A    between atoms: _341  and  _342
REMARK  134  A    between atoms: _341  and  _344
REMARK  135  A    between atoms: _344  and  _345
REMARK  136  A    between atoms: _348  and  _350
REMARK  137  A    between atoms: _350  and  _351
REMARK  138  A    between atoms: _350  and  _353
REMARK  139  A    between atoms: _356  and  _358
REMARK  140  A    between atoms: _358  and  _359
REMARK  141  A    between atoms: _361  and  _363
REMARK  142  A    between atoms: _363  and  _364
REMARK  143  A    between atoms: _363  and  _366
REMARK  144  A    between atoms: _366  and  _367
REMARK  145  A    between atoms: _367  and  _368
REMARK  146  A    between atoms: _368  and  _369
REMARK  147  A    between atoms: _369  and  _370
REMARK  148  A    between atoms: _374  and  _376
REMARK  149  A    between atoms: _376  and  _377
REMARK  150  A    between atoms: _376  and  _379
REMARK  151  A    between atoms: _379  and  _380
REMARK  152  A    between atoms: _383  and  _385
REMARK  153  A    between atoms: _385  and  _386
REMARK  154  A    between atoms: _389  and  _391
REMARK  155  A    between atoms: _391  and  _392
REMARK  156  A    between atoms: _394  and  _396
REMARK  157  A    between atoms: _396  and  _397
REMARK  158  A    between atoms: _396  and  _399
REMARK  159  A    between atoms: _399  and  _400
REMARK  160  A    between atoms: _403  and  _405
REMARK  161  A    between atoms: _405  and  _406
REMARK  162  A    between atoms: _405  and  _408
REMARK  163  A    between atoms: _408  and  _409
REMARK  164  A    between atoms: _412  and  _414
REMARK  165  A    between atoms: _414  and  _415
REMARK  166  A    between atoms: _418  and  _420
REMARK  167  A    between atoms: _420  and  _421
REMARK  168  A    between atoms: _420  and  _423
REMARK  169  A    between atoms: _423  and  _424
REMARK  170  A    between atoms: _424  and  _425
REMARK  171  A    between atoms: _428  and  _430
REMARK  172  A    between atoms: _430  and  _431
REMARK  173  A    between atoms: _430  and  _433
REMARK  174  A    between atoms: _436  and  _438
REMARK  175  A    between atoms: _438  and  _439
REMARK  176  A    between atoms: _438  and  _441
REMARK  177  A    between atoms: _441  and  _442
REMARK  178  A    between atoms: _445  and  _447
REMARK  179  A    between atoms: _447  and  _448
REMARK  180  A    between atoms: _450  and  _452
REMARK  181  A    between atoms: _452  and  _453
REMARK  182  A    between atoms: _452  and  _455
REMARK  183  A    between atoms: _458  and  _460
REMARK  184  A    between atoms: _460  and  _461
REMARK  185  A    between atoms: _463  and  _465
REMARK  186  A    between atoms: _465  and  _466
REMARK  187  A    between atoms: _465  and  _468
REMARK  188  A    between atoms: _468  and  _469
REMARK  189  A    between atoms: _472  and  _474
REMARK  190  A    between atoms: _474  and  _475
REMARK  191  A    between atoms: _474  and  _477
REMARK  192  A    between atoms: _477  and  _478
REMARK  193  A    between atoms: _483  and  _485
REMARK  194  A    between atoms: _485  and  _486
REMARK  195  A    between atoms: _485  and  _488
REMARK  196  A    between atoms: _491  and  _493
REMARK  197  A    between atoms: _493  and  _494
REMARK  198  A    between atoms: _493  and  _496
REMARK  199  A    between atoms: _496  and  _497
REMARK  200  A    between atoms: _497  and  _498
REMARK  201  A    between atoms: _503  and  _505
REMARK  202  A    between atoms: _505  and  _506
REMARK  203  A    between atoms: _510  and  _511
REMARK  204  A    between atoms: _516  and  _518
REMARK  205  A    between atoms: _518  and  _519
REMARK  206  A    between atoms: _518  and  _521
REMARK  207  A    between atoms: _521  and  _522
REMARK  208  A    between atoms: _522  and  _523
REMARK  209  A    between atoms: _526  and  _528
REMARK  210  A    between atoms: _528  and  _529
REMARK  211  A    between atoms: _528  and  _531
REMARK  212  A    between atoms: _534  and  _536
REMARK  213  A    between atoms: _536  and  _537
REMARK  214  A    between atoms: _536  and  _539
REMARK  215  A    between atoms: _539  and  _540
REMARK  216  A    between atoms: _544  and  _545
REMARK  217  A    between atoms: _550  and  _552
REMARK  218  A    between atoms: _552  and  _553
REMARK  219  A    between atoms: _552  and  _555
REMARK  220  A    between atoms: _555  and  _556
REMARK  221  A    between atoms: _559  and  _561
REMARK  222  A    between atoms: _561  and  _562
REMARK  223  A    between atoms: _565  and  _567
REMARK  224  A    between atoms: _567  and  _568
REMARK  225  A    between atoms: _567  and  _570
REMARK  226  A    between atoms: _570  and  _571
REMARK  227  A    between atoms: _574  and  _576
REMARK  228  A    between atoms: _576  and  _577
REMARK  229  A    between atoms: _576  and  _579
REMARK  230  A    between atoms: _579  and  _580
REMARK  231  A    between atoms: _582  and  _584
REMARK  232  A    between atoms: _584  and  _585
REMARK  233  A    between atoms: _587  and  _589
REMARK  234  A    between atoms: _589  and  _590
REMARK  235  A    between atoms: _589  and  _592
REMARK  236  A    between atoms: _592  and  _593
REMARK  237  A    between atoms: _596  and  _598
REMARK  238  A    between atoms: _598  and  _599
REMARK  239  A    between atoms: _598  and  _601
REMARK                            x       y       z     vdW  Elec       q    Type
REMARK                         _______ _______ _______ _____ _____    ______ ____
ROOT
ATOM      1  O   HOH     1      -5.191 -12.616   5.952  0.00  0.00    +0.000 OA
ENDROOT
TORSDOF 0
REMARK  Name = ../refined-set-2016/4xty/4xty_pocket.pdb
REMARK  239 active torsions:
REMARK  status: ('A' for Active; 'I' for Inactive)
REMARK    1  A    between atoms: _1  and  _3
REMARK    2  A    between atoms: _3  and  _4
REMARK    3  A    between atoms: _3  and  _6
REMARK    4  A    between atoms: _6  and  _7
REMARK    5  A    between atoms: _10  and  _12
REMARK    6  A    between atoms: _12  and  _13
REMARK    7  A    between atoms: _15  and  _17
REMARK    8  A    between atoms: _17  and  _18
REMARK    9  A    between atoms: _17  and  _20
REMARK   10  A    between atoms: _20  and  _21
REMARK   11  A    between atoms: _23  and  _25
REMARK   12  A    between atoms: _25  and  _26
REMARK   13  A    between atoms: _25  and  _28
REMARK   14  A    between atoms: _28  and  _29
REMARK   15  A    between atoms: _32  and  _34
REMARK   16  A    between atoms: _34  and  _35
REMARK   17  A    between atoms: _34  and  _37
REMARK   18  A    between atoms: _37  and  _38
REMARK   19  A    between atoms: _43  and  _45
REMARK   20  A    between atoms: _45  and  _46
REMARK   21  A    between atoms: _49  and  _51
REMARK   22  A    between atoms: _51  and  _52
REMARK   23  A    between atoms: _51  and  _54
REMARK   24  A    between atoms: _54  and  _55
REMARK   25  A    between atoms: _58  and  _60
REMARK   26  A    between atoms: _60  and  _61
REMARK   27  A    between atoms: _60  and  _63
REMARK   28  A    between atoms: _63  and  _64
REMARK   29  A    between atoms: _67  and  _69
REMARK   30  A    between atoms: _69  and  _70
REMARK   31  A    between atoms: _69  and  _72
REMARK   32  A    between atoms: _72  and  _73
REMARK   33  A    between atoms: _76  and  _78
REMARK   34  A    between atoms: _78  and  _79
REMARK   35  A    between atoms: _78  and  _81
REMARK   36  A    between atoms: _81  and  _82
REMARK   37  A    between atoms: _85  and  _87
REMARK   38  A    between atoms: _87  and  _88
REMARK   39  A    between atoms: _91  and  _93
REMARK   40  A    between atoms: _93  and  _94
REMARK   41  A    between atoms: _93  and  _96
REMARK   42  A    between atoms: _96  and  _97
REMARK   43  A    between atoms: _97  and  _98
REMARK   44  A    between atoms: _103  and  _105
REMARK   45  A    between atoms: _105  and  _106
REMARK   46  A    between atoms: _105  and  _108
REMARK   47  A    between atoms: _108  and  _109
REMARK   48  A    between atoms: _112  and  _114
REMARK   49  A    between atoms: _114  and  _115
REMARK   50  A    between atoms: _118  and  _120
REMARK   51  A    between atoms: _120  and  _121
REMARK   52  A    between atoms: _123  and  _125
REMARK   53  A    between atoms: _125  and  _126
REMARK   54  A    between atoms: _125  and  _128
REMARK   55  A    between atoms: _128  and  _129
REMARK   56  A    between atoms: _129  and  _130
REMARK   57  A    between atoms: _130  and  _131
REMARK   58  A    between atoms: _140  and  _142
REMARK   59  A    between atoms: _142  and  _143
REMARK   60  A    between atoms: _145  and  _147
REMARK   61  A    between atoms: _147  and  _148
REMARK   62  A    between atoms: _147  and  _150
REMARK   63  A    between atoms: _150  and  _151
REMARK   64  A    between atoms: _151  and  _152
REMARK   65  A    between atoms: _152  and  _153
REMARK   66  A    between atoms: _162  and  _164
REMARK   67  A    between atoms: _164  and  _165
REMARK   68  A    between atoms: _164  and  _167
REMARK   69  A    between atoms: _167  and  _168
REMARK   70  A    between atoms: _173  and  _175
REMARK   71  A    between atoms: _175  and  _176
REMARK   72  A    between atoms: _178  and  _180
REMARK   73  A    between atoms: _180  and  _181
REMARK   74  A    between atoms: _180  and  _183
REMARK   75  A    between atoms: _183  and  _184
REMARK   76  A    between atoms: _184  and  _185
REMARK   77  A    between atoms: _185  and  _186
REMARK   78  A    between atoms: _195  and  _197
REMARK   79  A    between atoms: _197  and  _198
REMARK   80  A    between atoms: _200  and  _202
REMARK   81  A    between atoms: _202  and  _203
REMARK   82  A    between atoms: _202  and  _205
REMARK   83  A    between atoms: _205  and  _206
REMARK   84  A    between atoms: _216  and  _218
REMARK   85  A    between atoms: _218  and  _219
REMARK   86  A    between atoms: _222  and  _224
REMARK   87  A    between atoms: _224  and  _225
REMARK   88  A    between atoms: _228  and  _230
REMARK   89  A    between atoms: _230  and  _231
REMARK   90  A    between atoms: _230  and  _233
REMARK   91  A    between atoms: _233  and  _234
REMARK   92  A    between atoms: _237  and  _239
REMARK   93  A    between atoms: _239  and  _240
REMARK   94  A    between atoms: _239  and  _242
REMARK   95  A    between atoms: _242  and  _243
REMARK   96  A    between atoms: _243  and  _244
REMARK   97  A    between atoms: _249  and  _251
REMARK   98  A    between atoms: _251  and  _252
REMARK   99  A    between atoms: _251  and  _254
REMARK  100  A    between atoms: _254  and  _255
REMARK  101  A    between atoms: _258  and  _260
REMARK  102  A    between atoms: _260  and  _261
REMARK  103  A    between atoms: _260  and  _263
REMARK  104  A    between atoms: _263  and  _264
REMARK  105  A    between atoms: _267  and  _269
REMARK  106  A    between atoms: _269  and  _270
REMARK  107  A    between atoms: _269  and  _272
REMARK  108  A    between atoms: _272  and  _273
REMARK  109  A    between atoms: _276  and  _278
REMARK  110  A    between atoms: _278  and  _279
REMARK  111  A    between atoms: _278  and  _281
REMARK  112  A    between atoms: _281  and  _282
REMARK  113  A    between atoms: _284  and  _286
REMARK  114  A    between atoms: _286  and  _287
REMARK  115  A    between atoms: _286  and  _289
REMARK  116  A    between atoms: _292  and  _294
REMARK  117  A    between atoms: _294  and  _295
REMARK  118  A    between atoms: _294  and  _297
REMARK  119  A    between atoms: _297  and  _298
REMARK  120  A    between atoms: _298  and  _299
REMARK  121  A    between atoms: _299  and  _300
REMARK  122  A    between atoms: _300  and  _301
REMARK  123  A    between atoms: _305  and  _307
REMARK  124  A    between atoms: _307  and  _308
REMARK  125  A    between atoms: _307  and  _310
REMARK  126  A    between atoms: _310  and  _311
REMARK  127  A    between atoms: _322  and  _323
REMARK  128  A    between atoms: _328  and  _330
REMARK  129  A    between atoms: _330  and  _331
REMARK  130  A    between atoms: _330  and  _333
REMARK  131  A    between atoms: _333  and  _334
REMARK  132  A    between atoms: _339  and  _341
REMARK  133  A    between atoms: _341  and  _342
REMARK  134  A    between atoms: _341  and  _344
REMARK  135  A    between atoms: _344  and  _345
REMARK  136  A    between atoms: _348  and  _350
REMARK  137  A    between atoms: _350  and  _351
REMARK  138  A    between atoms: _350  and  _353
REMARK  139  A    between atoms: _356  and  _358
REMARK  140  A    between atoms: _358  and  _359
REMARK  141  A    between atoms: _361  and  _363
REMARK  142  A    between atoms: _363  and  _364
REMARK  143  A    between atoms: _363  and  _366
REMARK  144  A    between atoms: _366  and  _367
REMARK  145  A    between atoms: _367  and  _368
REMARK  146  A    between atoms: _368  and  _369
REMARK  147  A    between atoms: _369  and  _370
REMARK  148  A    between atoms: _374  and  _376
REMARK  149  A    between atoms: _376  and  _377
REMARK  150  A    between atoms: _376  and  _379
REMARK  151  A    between atoms: _379  and  _380
REMARK  152  A    between atoms: _383  and  _385
REMARK  153  A    between atoms: _385  and  _386
REMARK  154  A    between atoms: _389  and  _391
REMARK  155  A    between atoms: _391  and  _392
REMARK  156  A    between atoms: _394  and  _396
REMARK  157  A    between atoms: _396  and  _397
REMARK  158  A    between atoms: _396  and  _399
REMARK  159  A    between atoms: _399  and  _400
REMARK  160  A    between atoms: _403  and  _405
REMARK  161  A    between atoms: _405  and  _406
REMARK  162  A    between atoms: _405  and  _408
REMARK  163  A    between atoms: _408  and  _409
REMARK  164  A    between atoms: _412  and  _414
REMARK  165  A    between atoms: _414  and  _415
REMARK  166  A    between atoms: _418  and  _420
REMARK  167  A    between atoms: _420  and  _421
REMARK  168  A    between atoms: _420  and  _423
REMARK  169  A    between atoms: _423  and  _424
REMARK  170  A    between atoms: _424  and  _425
REMARK  171  A    between atoms: _428  and  _430
REMARK  172  A    between atoms: _430  and  _431
REMARK  173  A    between atoms: _430  and  _433
REMARK  174  A    between atoms: _436  and  _438
REMARK  175  A    between atoms: _438  and  _439
REMARK  176  A    between atoms: _438  and  _441
REMARK  177  A    between atoms: _441  and  _442
REMARK  178  A    between atoms: _445  and  _447
REMARK  179  A    between atoms: _447  and  _448
REMARK  180  A    between atoms: _450  and  _452
REMARK  181  A    between atoms: _452  and  _453
REMARK  182  A    between atoms: _452  and  _455
REMARK  183  A    between atoms: _458  and  _460
REMARK  184  A    between atoms: _460  and  _461
REMARK  185  A    between atoms: _463  and  _465
REMARK  186  A    between atoms: _465  and  _466
REMARK  187  A    between atoms: _465  and  _468
REMARK  188  A    between atoms: _468  and  _469
REMARK  189  A    between atoms: _472  and  _474
REMARK  190  A    between atoms: _474  and  _475
REMARK  191  A    between atoms: _474  and  _477
REMARK  192  A    between atoms: _477  and  _478
REMARK  193  A    between atoms: _483  and  _485
REMARK  194  A    between atoms: _485  and  _486
REMARK  195  A    between atoms: _485  and  _488
REMARK  196  A    between atoms: _491  and  _493
REMARK  197  A    between atoms: _493  and  _494
REMARK  198  A    between atoms: _493  and  _496
REMARK  199  A    between atoms: _496  and  _497
REMARK  200  A    between atoms: _497  and  _498
REMARK  201  A    between atoms: _503  and  _505
REMARK  202  A    between atoms: _505  and  _506
REMARK  203  A    between atoms: _510  and  _511
REMARK  204  A    between atoms: _516  and  _518
REMARK  205  A    between atoms: _518  and  _519
REMARK  206  A    between atoms: _518  and  _521
REMARK  207  A    between atoms: _521  and  _522
REMARK  208  A    between atoms: _522  and  _523
REMARK  209  A    between atoms: _526  and  _528
REMARK  210  A    between atoms: _528  and  _529
REMARK  211  A    between atoms: _528  and  _531
REMARK  212  A    between atoms: _534  and  _536
REMARK  213  A    between atoms: _536  and  _537
REMARK  214  A    between atoms: _536  and  _539
REMARK  215  A    between atoms: _539  and  _540
REMARK  216  A    between atoms: _544  and  _545
REMARK  217  A    between atoms: _550  and  _552
REMARK  218  A    between atoms: _552  and  _553
REMARK  219  A    between atoms: _552  and  _555
REMARK  220  A    between atoms: _555  and  _556
REMARK  221  A    between atoms: _559  and  _561
REMARK  222  A    between atoms: _561  and  _562
REMARK  223  A    between atoms: _565  and  _567
REMARK  224  A    between atoms: _567  and  _568
REMARK  225  A    between atoms: _567  and  _570
REMARK  226  A    between atoms: _570  and  _571
REMARK  227  A    between atoms: _574  and  _576
REMARK  228  A    between atoms: _576  and  _577
REMARK  229  A    between atoms: _576  and  _579
REMARK  230  A    between atoms: _579  and  _580
REMARK  231  A    between atoms: _582  and  _584
REMARK  232  A    between atoms: _584  and  _585
REMARK  233  A    between atoms: _587  and  _589
REMARK  234  A    between atoms: _589  and  _590
REMARK  235  A    between atoms: _589  and  _592
REMARK  236  A    between atoms: _592  and  _593
REMARK  237  A    between atoms: _596  and  _598
REMARK  238  A    between atoms: _598  and  _599
REMARK  239  A    between atoms: _598  and  _601
REMARK                            x       y       z     vdW  Elec       q    Type
REMARK                         _______ _______ _______ _____ _____    ______ ____
ROOT
ATOM      1  O   HOH     1      -6.509  -1.903   5.842  0.00  0.00    +0.000 OA
ENDROOT
TORSDOF 0
REMARK  Name = ../refined-set-2016/4xty/4xty_pocket.pdb
REMARK  239 active torsions:
REMARK  status: ('A' for Active; 'I' for Inactive)
REMARK    1  A    between atoms: _1  and  _3
REMARK    2  A    between atoms: _3  and  _4
REMARK    3  A    between atoms: _3  and  _6
REMARK    4  A    between atoms: _6  and  _7
REMARK    5  A    between atoms: _10  and  _12
REMARK    6  A    between atoms: _12  and  _13
REMARK    7  A    between atoms: _15  and  _17
REMARK    8  A    between atoms: _17  and  _18
REMARK    9  A    between atoms: _17  and  _20
REMARK   10  A    between atoms: _20  and  _21
REMARK   11  A    between atoms: _23  and  _25
REMARK   12  A    between atoms: _25  and  _26
REMARK   13  A    between atoms: _25  and  _28
REMARK   14  A    between atoms: _28  and  _29
REMARK   15  A    between atoms: _32  and  _34
REMARK   16  A    between atoms: _34  and  _35
REMARK   17  A    between atoms: _34  and  _37
REMARK   18  A    between atoms: _37  and  _38
REMARK   19  A    between atoms: _43  and  _45
REMARK   20  A    between atoms: _45  and  _46
REMARK   21  A    between atoms: _49  and  _51
REMARK   22  A    between atoms: _51  and  _52
REMARK   23  A    between atoms: _51  and  _54
REMARK   24  A    between atoms: _54  and  _55
REMARK   25  A    between atoms: _58  and  _60
REMARK   26  A    between atoms: _60  and  _61
REMARK   27  A    between atoms: _60  and  _63
REMARK   28  A    between atoms: _63  and  _64
REMARK   29  A    between atoms: _67  and  _69
REMARK   30  A    between atoms: _69  and  _70
REMARK   31  A    between atoms: _69  and  _72
REMARK   32  A    between atoms: _72  and  _73
REMARK   33  A    between atoms: _76  and  _78
REMARK   34  A    between atoms: _78  and  _79
REMARK   35  A    between atoms: _78  and  _81
REMARK   36  A    between atoms: _81  and  _82
REMARK   37  A    between atoms: _85  and  _87
REMARK   38  A    between atoms: _87  and  _88
REMARK   39  A    between atoms: _91  and  _93
REMARK   40  A    between atoms: _93  and  _94
REMARK   41  A    between atoms: _93  and  _96
REMARK   42  A    between atoms: _96  and  _97
REMARK   43  A    between atoms: _97  and  _98
REMARK   44  A    between atoms: _103  and  _105
REMARK   45  A    between atoms: _105  and  _106
REMARK   46  A    between atoms: _105  and  _108
REMARK   47  A    between atoms: _108  and  _109
REMARK   48  A    between atoms: _112  and  _114
REMARK   49  A    between atoms: _114  and  _115
REMARK   50  A    between atoms: _118  and  _120
REMARK   51  A    between atoms: _120  and  _121
REMARK   52  A    between atoms: _123  and  _125
REMARK   53  A    between atoms: _125  and  _126
REMARK   54  A    between atoms: _125  and  _128
REMARK   55  A    between atoms: _128  and  _129
REMARK   56  A    between atoms: _129  and  _130
REMARK   57  A    between atoms: _130  and  _131
REMARK   58  A    between atoms: _140  and  _142
REMARK   59  A    between atoms: _142  and  _143
REMARK   60  A    between atoms: _145  and  _147
REMARK   61  A    between atoms: _147  and  _148
REMARK   62  A    between atoms: _147  and  _150
REMARK   63  A    between atoms: _150  and  _151
REMARK   64  A    between atoms: _151  and  _152
REMARK   65  A    between atoms: _152  and  _153
REMARK   66  A    between atoms: _162  and  _164
REMARK   67  A    between atoms: _164  and  _165
REMARK   68  A    between atoms: _164  and  _167
REMARK   69  A    between atoms: _167  and  _168
REMARK   70  A    between atoms: _173  and  _175
REMARK   71  A    between atoms: _175  and  _176
REMARK   72  A    between atoms: _178  and  _180
REMARK   73  A    between atoms: _180  and  _181
REMARK   74  A    between atoms: _180  and  _183
REMARK   75  A    between atoms: _183  and  _184
REMARK   76  A    between atoms: _184  and  _185
REMARK   77  A    between atoms: _185  and  _186
REMARK   78  A    between atoms: _195  and  _197
REMARK   79  A    between atoms: _197  and  _198
REMARK   80  A    between atoms: _200  and  _202
REMARK   81  A    between atoms: _202  and  _203
REMARK   82  A    between atoms: _202  and  _205
REMARK   83  A    between atoms: _205  and  _206
REMARK   84  A    between atoms: _216  and  _218
REMARK   85  A    between atoms: _218  and  _219
REMARK   86  A    between atoms: _222  and  _224
REMARK   87  A    between atoms: _224  and  _225
REMARK   88  A    between atoms: _228  and  _230
REMARK   89  A    between atoms: _230  and  _231
REMARK   90  A    between atoms: _230  and  _233
REMARK   91  A    between atoms: _233  and  _234
REMARK   92  A    between atoms: _237  and  _239
REMARK   93  A    between atoms: _239  and  _240
REMARK   94  A    between atoms: _239  and  _242
REMARK   95  A    between atoms: _242  and  _243
REMARK   96  A    between atoms: _243  and  _244
REMARK   97  A    between atoms: _249  and  _251
REMARK   98  A    between atoms: _251  and  _252
REMARK   99  A    between atoms: _251  and  _254
REMARK  100  A    between atoms: _254  and  _255
REMARK  101  A    between atoms: _258  and  _260
REMARK  102  A    between atoms: _260  and  _261
REMARK  103  A    between atoms: _260  and  _263
REMARK  104  A    between atoms: _263  and  _264
REMARK  105  A    between atoms: _267  and  _269
REMARK  106  A    between atoms: _269  and  _270
REMARK  107  A    between atoms: _269  and  _272
REMARK  108  A    between atoms: _272  and  _273
REMARK  109  A    between atoms: _276  and  _278
REMARK  110  A    between atoms: _278  and  _279
REMARK  111  A    between atoms: _278  and  _281
REMARK  112  A    between atoms: _281  and  _282
REMARK  113  A    between atoms: _284  and  _286
REMARK  114  A    between atoms: _286  and  _287
REMARK  115  A    between atoms: _286  and  _289
REMARK  116  A    between atoms: _292  and  _294
REMARK  117  A    between atoms: _294  and  _295
REMARK  118  A    between atoms: _294  and  _297
REMARK  119  A    between atoms: _297  and  _298
REMARK  120  A    between atoms: _298  and  _299
REMARK  121  A    between atoms: _299  and  _300
REMARK  122  A    between atoms: _300  and  _301
REMARK  123  A    between atoms: _305  and  _307
REMARK  124  A    between atoms: _307  and  _308
REMARK  125  A    between atoms: _307  and  _310
REMARK  126  A    between atoms: _310  and  _311
REMARK  127  A    between atoms: _322  and  _323
REMARK  128  A    between atoms: _328  and  _330
REMARK  129  A    between atoms: _330  and  _331
REMARK  130  A    between atoms: _330  and  _333
REMARK  131  A    between atoms: _333  and  _334
REMARK  132  A    between atoms: _339  and  _341
REMARK  133  A    between atoms: _341  and  _342
REMARK  134  A    between atoms: _341  and  _344
REMARK  135  A    between atoms: _344  and  _345
REMARK  136  A    between atoms: _348  and  _350
REMARK  137  A    between atoms: _350  and  _351
REMARK  138  A    between atoms: _350  and  _353
REMARK  139  A    between atoms: _356  and  _358
REMARK  140  A    between atoms: _358  and  _359
REMARK  141  A    between atoms: _361  and  _363
REMARK  142  A    between atoms: _363  and  _364
REMARK  143  A    between atoms: _363  and  _366
REMARK  144  A    between atoms: _366  and  _367
REMARK  145  A    between atoms: _367  and  _368
REMARK  146  A    between atoms: _368  and  _369
REMARK  147  A    between atoms: _369  and  _370
REMARK  148  A    between atoms: _374  and  _376
REMARK  149  A    between atoms: _376  and  _377
REMARK  150  A    between atoms: _376  and  _379
REMARK  151  A    between atoms: _379  and  _380
REMARK  152  A    between atoms: _383  and  _385
REMARK  153  A    between atoms: _385  and  _386
REMARK  154  A    between atoms: _389  and  _391
REMARK  155  A    between atoms: _391  and  _392
REMARK  156  A    between atoms: _394  and  _396
REMARK  157  A    between atoms: _396  and  _397
REMARK  158  A    between atoms: _396  and  _399
REMARK  159  A    between atoms: _399  and  _400
REMARK  160  A    between atoms: _403  and  _405
REMARK  161  A    between atoms: _405  and  _406
REMARK  162  A    between atoms: _405  and  _408
REMARK  163  A    between atoms: _408  and  _409
REMARK  164  A    between atoms: _412  and  _414
REMARK  165  A    between atoms: _414  and  _415
REMARK  166  A    between atoms: _418  and  _420
REMARK  167  A    between atoms: _420  and  _421
REMARK  168  A    between atoms: _420  and  _423
REMARK  169  A    between atoms: _423  and  _424
REMARK  170  A    between atoms: _424  and  _425
REMARK  171  A    between atoms: _428  and  _430
REMARK  172  A    between atoms: _430  and  _431
REMARK  173  A    between atoms: _430  and  _433
REMARK  174  A    between atoms: _436  and  _438
REMARK  175  A    between atoms: _438  and  _439
REMARK  176  A    between atoms: _438  and  _441
REMARK  177  A    between atoms: _441  and  _442
REMARK  178  A    between atoms: _445  and  _447
REMARK  179  A    between atoms: _447  and  _448
REMARK  180  A    between atoms: _450  and  _452
REMARK  181  A    between atoms: _452  and  _453
REMARK  182  A    between atoms: _452  and  _455
REMARK  183  A    between atoms: _458  and  _460
REMARK  184  A    between atoms: _460  and  _461
REMARK  185  A    between atoms: _463  and  _465
REMARK  186  A    between atoms: _465  and  _466
REMARK  187  A    between atoms: _465  and  _468
REMARK  188  A    between atoms: _468  and  _469
REMARK  189  A    between atoms: _472  and  _474
REMARK  190  A    between atoms: _474  and  _475
REMARK  191  A    between atoms: _474  and  _477
REMARK  192  A    between atoms: _477  and  _478
REMARK  193  A    between atoms: _483  and  _485
REMARK  194  A    between atoms: _485  and  _486
REMARK  195  A    between atoms: _485  and  _488
REMARK  196  A    between atoms: _491  and  _493
REMARK  197  A    between atoms: _493  and  _494
REMARK  198  A    between atoms: _493  and  _496
REMARK  199  A    between atoms: _496  and  _497
REMARK  200  A    between atoms: _497  and  _498
REMARK  201  A    between atoms: _503  and  _505
REMARK  202  A    between atoms: _505  and  _506
REMARK  203  A    between atoms: _510  and  _511
REMARK  204  A    between atoms: _516  and  _518
REMARK  205  A    between atoms: _518  and  _519
REMARK  206  A    between atoms: _518  and  _521
REMARK  207  A    between atoms: _521  and  _522
REMARK  208  A    between atoms: _522  and  _523
REMARK  209  A    between atoms: _526  and  _528
REMARK  210  A    between atoms: _528  and  _529
REMARK  211  A    between atoms: _528  and  _531
REMARK  212  A    between atoms: _534  and  _536
REMARK  213  A    between atoms: _536  and  _537
REMARK  214  A    between atoms: _536  and  _539
REMARK  215  A    between atoms: _539  and  _540
REMARK  216  A    between atoms: _544  and  _545
REMARK  217  A    between atoms: _550  and  _552
REMARK  218  A    between atoms: _552  and  _553
REMARK  219  A    between atoms: _552  and  _555
REMARK  220  A    between atoms: _555  and  _556
REMARK  221  A    between atoms: _559  and  _561
REMARK  222  A    between atoms: _561  and  _562
REMARK  223  A    between atoms: _565  and  _567
REMARK  224  A    between atoms: _567  and  _568
REMARK  225  A    between atoms: _567  and  _570
REMARK  226  A    between atoms: _570  and  _571
REMARK  227  A    between atoms: _574  and  _576
REMARK  228  A    between atoms: _576  and  _577
REMARK  229  A    between atoms: _576  and  _579
REMARK  230  A    between atoms: _579  and  _580
REMARK  231  A    between atoms: _582  and  _584
REMARK  232  A    between atoms: _584  and  _585
REMARK  233  A    between atoms: _587  and  _589
REMARK  234  A    between atoms: _589  and  _590
REMARK  235  A    between atoms: _589  and  _592
REMARK  236  A    between atoms: _592  and  _593
REMARK  237  A    between atoms: _596  and  _598
REMARK  238  A    between atoms: _598  and  _599
REMARK  239  A    between atoms: _598  and  _601
REMARK                            x       y       z     vdW  Elec       q    Type
REMARK                         _______ _______ _______ _____ _____    ______ ____
ROOT
ATOM      1  O   HOH     1       0.972  -0.652  18.597  0.00  0.00    +0.000 OA
ENDROOT
TORSDOF 0
REMARK  Name = ../refined-set-2016/4xty/4xty_pocket.pdb
REMARK  239 active torsions:
REMARK  status: ('A' for Active; 'I' for Inactive)
REMARK    1  A    between atoms: _1  and  _3
REMARK    2  A    between atoms: _3  and  _4
REMARK    3  A    between atoms: _3  and  _6
REMARK    4  A    between atoms: _6  and  _7
REMARK    5  A    between atoms: _10  and  _12
REMARK    6  A    between atoms: _12  and  _13
REMARK    7  A    between atoms: _15  and  _17
REMARK    8  A    between atoms: _17  and  _18
REMARK    9  A    between atoms: _17  and  _20
REMARK   10  A    between atoms: _20  and  _21
REMARK   11  A    between atoms: _23  and  _25
REMARK   12  A    between atoms: _25  and  _26
REMARK   13  A    between atoms: _25  and  _28
REMARK   14  A    between atoms: _28  and  _29
REMARK   15  A    between atoms: _32  and  _34
REMARK   16  A    between atoms: _34  and  _35
REMARK   17  A    between atoms: _34  and  _37
REMARK   18  A    between atoms: _37  and  _38
REMARK   19  A    between atoms: _43  and  _45
REMARK   20  A    between atoms: _45  and  _46
REMARK   21  A    between atoms: _49  and  _51
REMARK   22  A    between atoms: _51  and  _52
REMARK   23  A    between atoms: _51  and  _54
REMARK   24  A    between atoms: _54  and  _55
REMARK   25  A    between atoms: _58  and  _60
REMARK   26  A    between atoms: _60  and  _61
REMARK   27  A    between atoms: _60  and  _63
REMARK   28  A    between atoms: _63  and  _64
REMARK   29  A    between atoms: _67  and  _69
REMARK   30  A    between atoms: _69  and  _70
REMARK   31  A    between atoms: _69  and  _72
REMARK   32  A    between atoms: _72  and  _73
REMARK   33  A    between atoms: _76  and  _78
REMARK   34  A    between atoms: _78  and  _79
REMARK   35  A    between atoms: _78  and  _81
REMARK   36  A    between atoms: _81  and  _82
REMARK   37  A    between atoms: _85  and  _87
REMARK   38  A    between atoms: _87  and  _88
REMARK   39  A    between atoms: _91  and  _93
REMARK   40  A    between atoms: _93  and  _94
REMARK   41  A    between atoms: _93  and  _96
REMARK   42  A    between atoms: _96  and  _97
REMARK   43  A    between atoms: _97  and  _98
REMARK   44  A    between atoms: _103  and  _105
REMARK   45  A    between atoms: _105  and  _106
REMARK   46  A    between atoms: _105  and  _108
REMARK   47  A    between atoms: _108  and  _109
REMARK   48  A    between atoms: _112  and  _114
REMARK   49  A    between atoms: _114  and  _115
REMARK   50  A    between atoms: _118  and  _120
REMARK   51  A    between atoms: _120  and  _121
REMARK   52  A    between atoms: _123  and  _125
REMARK   53  A    between atoms: _125  and  _126
REMARK   54  A    between atoms: _125  and  _128
REMARK   55  A    between atoms: _128  and  _129
REMARK   56  A    between atoms: _129  and  _130
REMARK   57  A    between atoms: _130  and  _131
REMARK   58  A    between atoms: _140  and  _142
REMARK   59  A    between atoms: _142  and  _143
REMARK   60  A    between atoms: _145  and  _147
REMARK   61  A    between atoms: _147  and  _148
REMARK   62  A    between atoms: _147  and  _150
REMARK   63  A    between atoms: _150  and  _151
REMARK   64  A    between atoms: _151  and  _152
REMARK   65  A    between atoms: _152  and  _153
REMARK   66  A    between atoms: _162  and  _164
REMARK   67  A    between atoms: _164  and  _165
REMARK   68  A    between atoms: _164  and  _167
REMARK   69  A    between atoms: _167  and  _168
REMARK   70  A    between atoms: _173  and  _175
REMARK   71  A    between atoms: _175  and  _176
REMARK   72  A    between atoms: _178  and  _180
REMARK   73  A    between atoms: _180  and  _181
REMARK   74  A    between atoms: _180  and  _183
REMARK   75  A    between atoms: _183  and  _184
REMARK   76  A    between atoms: _184  and  _185
REMARK   77  A    between atoms: _185  and  _186
REMARK   78  A    between atoms: _195  and  _197
REMARK   79  A    between atoms: _197  and  _198
REMARK   80  A    between atoms: _200  and  _202
REMARK   81  A    between atoms: _202  and  _203
REMARK   82  A    between atoms: _202  and  _205
REMARK   83  A    between atoms: _205  and  _206
REMARK   84  A    between atoms: _216  and  _218
REMARK   85  A    between atoms: _218  and  _219
REMARK   86  A    between atoms: _222  and  _224
REMARK   87  A    between atoms: _224  and  _225
REMARK   88  A    between atoms: _228  and  _230
REMARK   89  A    between atoms: _230  and  _231
REMARK   90  A    between atoms: _230  and  _233
REMARK   91  A    between atoms: _233  and  _234
REMARK   92  A    between atoms: _237  and  _239
REMARK   93  A    between atoms: _239  and  _240
REMARK   94  A    between atoms: _239  and  _242
REMARK   95  A    between atoms: _242  and  _243
REMARK   96  A    between atoms: _243  and  _244
REMARK   97  A    between atoms: _249  and  _251
REMARK   98  A    between atoms: _251  and  _252
REMARK   99  A    between atoms: _251  and  _254
REMARK  100  A    between atoms: _254  and  _255
REMARK  101  A    between atoms: _258  and  _260
REMARK  102  A    between atoms: _260  and  _261
REMARK  103  A    between atoms: _260  and  _263
REMARK  104  A    between atoms: _263  and  _264
REMARK  105  A    between atoms: _267  and  _269
REMARK  106  A    between atoms: _269  and  _270
REMARK  107  A    between atoms: _269  and  _272
REMARK  108  A    between atoms: _272  and  _273
REMARK  109  A    between atoms: _276  and  _278
REMARK  110  A    between atoms: _278  and  _279
REMARK  111  A    between atoms: _278  and  _281
REMARK  112  A    between atoms: _281  and  _282
REMARK  113  A    between atoms: _284  and  _286
REMARK  114  A    between atoms: _286  and  _287
REMARK  115  A    between atoms: _286  and  _289
REMARK  116  A    between atoms: _292  and  _294
REMARK  117  A    between atoms: _294  and  _295
REMARK  118  A    between atoms: _294  and  _297
REMARK  119  A    between atoms: _297  and  _298
REMARK  120  A    between atoms: _298  and  _299
REMARK  121  A    between atoms: _299  and  _300
REMARK  122  A    between atoms: _300  and  _301
REMARK  123  A    between atoms: _305  and  _307
REMARK  124  A    between atoms: _307  and  _308
REMARK  125  A    between atoms: _307  and  _310
REMARK  126  A    between atoms: _310  and  _311
REMARK  127  A    between atoms: _322  and  _323
REMARK  128  A    between atoms: _328  and  _330
REMARK  129  A    between atoms: _330  and  _331
REMARK  130  A    between atoms: _330  and  _333
REMARK  131  A    between atoms: _333  and  _334
REMARK  132  A    between atoms: _339  and  _341
REMARK  133  A    between atoms: _341  and  _342
REMARK  134  A    between atoms: _341  and  _344
REMARK  135  A    between atoms: _344  and  _345
REMARK  136  A    between atoms: _348  and  _350
REMARK  137  A    between atoms: _350  and  _351
REMARK  138  A    between atoms: _350  and  _353
REMARK  139  A    between atoms: _356  and  _358
REMARK  140  A    between atoms: _358  and  _359
REMARK  141  A    between atoms: _361  and  _363
REMARK  142  A    between atoms: _363  and  _364
REMARK  143  A    between atoms: _363  and  _366
REMARK  144  A    between atoms: _366  and  _367
REMARK  145  A    between atoms: _367  and  _368
REMARK  146  A    between atoms: _368  and  _369
REMARK  147  A    between atoms: _369  and  _370
REMARK  148  A    between atoms: _374  and  _376
REMARK  149  A    between atoms: _376  and  _377
REMARK  150  A    between atoms: _376  and  _379
REMARK  151  A    between atoms: _379  and  _380
REMARK  152  A    between atoms: _383  and  _385
REMARK  153  A    between atoms: _385  and  _386
REMARK  154  A    between atoms: _389  and  _391
REMARK  155  A    between atoms: _391  and  _392
REMARK  156  A    between atoms: _394  and  _396
REMARK  157  A    between atoms: _396  and  _397
REMARK  158  A    between atoms: _396  and  _399
REMARK  159  A    between atoms: _399  and  _400
REMARK  160  A    between atoms: _403  and  _405
REMARK  161  A    between atoms: _405  and  _406
REMARK  162  A    between atoms: _405  and  _408
REMARK  163  A    between atoms: _408  and  _409
REMARK  164  A    between atoms: _412  and  _414
REMARK  165  A    between atoms: _414  and  _415
REMARK  166  A    between atoms: _418  and  _420
REMARK  167  A    between atoms: _420  and  _421
REMARK  168  A    between atoms: _420  and  _423
REMARK  169  A    between atoms: _423  and  _424
REMARK  170  A    between atoms: _424  and  _425
REMARK  171  A    between atoms: _428  and  _430
REMARK  172  A    between atoms: _430  and  _431
REMARK  173  A    between atoms: _430  and  _433
REMARK  174  A    between atoms: _436  and  _438
REMARK  175  A    between atoms: _438  and  _439
REMARK  176  A    between atoms: _438  and  _441
REMARK  177  A    between atoms: _441  and  _442
REMARK  178  A    between atoms: _445  and  _447
REMARK  179  A    between atoms: _447  and  _448
REMARK  180  A    between atoms: _450  and  _452
REMARK  181  A    between atoms: _452  and  _453
REMARK  182  A    between atoms: _452  and  _455
REMARK  183  A    between atoms: _458  and  _460
REMARK  184  A    between atoms: _460  and  _461
REMARK  185  A    between atoms: _463  and  _465
REMARK  186  A    between atoms: _465  and  _466
REMARK  187  A    between atoms: _465  and  _468
REMARK  188  A    between atoms: _468  and  _469
REMARK  189  A    between atoms: _472  and  _474
REMARK  190  A    between atoms: _474  and  _475
REMARK  191  A    between atoms: _474  and  _477
REMARK  192  A    between atoms: _477  and  _478
REMARK  193  A    between atoms: _483  and  _485
REMARK  194  A    between atoms: _485  and  _486
REMARK  195  A    between atoms: _485  and  _488
REMARK  196  A    between atoms: _491  and  _493
REMARK  197  A    between atoms: _493  and  _494
REMARK  198  A    between atoms: _493  and  _496
REMARK  199  A    between atoms: _496  and  _497
REMARK  200  A    between atoms: _497  and  _498
REMARK  201  A    between atoms: _503  and  _505
REMARK  202  A    between atoms: _505  and  _506
REMARK  203  A    between atoms: _510  and  _511
REMARK  204  A    between atoms: _516  and  _518
REMARK  205  A    between atoms: _518  and  _519
REMARK  206  A    between atoms: _518  and  _521
REMARK  207  A    between atoms: _521  and  _522
REMARK  208  A    between atoms: _522  and  _523
REMARK  209  A    between atoms: _526  and  _528
REMARK  210  A    between atoms: _528  and  _529
REMARK  211  A    between atoms: _528  and  _531
REMARK  212  A    between atoms: _534  and  _536
REMARK  213  A    between atoms: _536  and  _537
REMARK  214  A    between atoms: _536  and  _539
REMARK  215  A    between atoms: _539  and  _540
REMARK  216  A    between atoms: _544  and  _545
REMARK  217  A    between atoms: _550  and  _552
REMARK  218  A    between atoms: _552  and  _553
REMARK  219  A    between atoms: _552  and  _555
REMARK  220  A    between atoms: _555  and  _556
REMARK  221  A    between atoms: _559  and  _561
REMARK  222  A    between atoms: _561  and  _562
REMARK  223  A    between atoms: _565  and  _567
REMARK  224  A    between atoms: _567  and  _568
REMARK  225  A    between atoms: _567  and  _570
REMARK  226  A    between atoms: _570  and  _571
REMARK  227  A    between atoms: _574  and  _576
REMARK  228  A    between atoms: _576  and  _577
REMARK  229  A    between atoms: _576  and  _579
REMARK  230  A    between atoms: _579  and  _580
REMARK  231  A    between atoms: _582  and  _584
REMARK  232  A    between atoms: _584  and  _585
REMARK  233  A    between atoms: _587  and  _589
REMARK  234  A    between atoms: _589  and  _590
REMARK  235  A    between atoms: _589  and  _592
REMARK  236  A    between atoms: _592  and  _593
REMARK  237  A    between atoms: _596  and  _598
REMARK  238  A    between atoms: _598  and  _599
REMARK  239  A    between atoms: _598  and  _601
REMARK                            x       y       z     vdW  Elec       q    Type
REMARK                         _______ _______ _______ _____ _____    ______ ____
ROOT
ATOM      1  O   HOH     1     -11.078   2.062  15.750  0.00  0.00    +0.000 OA
ENDROOT
TORSDOF 0
REMARK  Name = ../refined-set-2016/4xty/4xty_pocket.pdb
REMARK  239 active torsions:
REMARK  status: ('A' for Active; 'I' for Inactive)
REMARK    1  A    between atoms: _1  and  _3
REMARK    2  A    between atoms: _3  and  _4
REMARK    3  A    between atoms: _3  and  _6
REMARK    4  A    between atoms: _6  and  _7
REMARK    5  A    between atoms: _10  and  _12
REMARK    6  A    between atoms: _12  and  _13
REMARK    7  A    between atoms: _15  and  _17
REMARK    8  A    between atoms: _17  and  _18
REMARK    9  A    between atoms: _17  and  _20
REMARK   10  A    between atoms: _20  and  _21
REMARK   11  A    between atoms: _23  and  _25
REMARK   12  A    between atoms: _25  and  _26
REMARK   13  A    between atoms: _25  and  _28
REMARK   14  A    between atoms: _28  and  _29
REMARK   15  A    between atoms: _32  and  _34
REMARK   16  A    between atoms: _34  and  _35
REMARK   17  A    between atoms: _34  and  _37
REMARK   18  A    between atoms: _37  and  _38
REMARK   19  A    between atoms: _43  and  _45
REMARK   20  A    between atoms: _45  and  _46
REMARK   21  A    between atoms: _49  and  _51
REMARK   22  A    between atoms: _51  and  _52
REMARK   23  A    between atoms: _51  and  _54
REMARK   24  A    between atoms: _54  and  _55
REMARK   25  A    between atoms: _58  and  _60
REMARK   26  A    between atoms: _60  and  _61
REMARK   27  A    between atoms: _60  and  _63
REMARK   28  A    between atoms: _63  and  _64
REMARK   29  A    between atoms: _67  and  _69
REMARK   30  A    between atoms: _69  and  _70
REMARK   31  A    between atoms: _69  and  _72
REMARK   32  A    between atoms: _72  and  _73
REMARK   33  A    between atoms: _76  and  _78
REMARK   34  A    between atoms: _78  and  _79
REMARK   35  A    between atoms: _78  and  _81
REMARK   36  A    between atoms: _81  and  _82
REMARK   37  A    between atoms: _85  and  _87
REMARK   38  A    between atoms: _87  and  _88
REMARK   39  A    between atoms: _91  and  _93
REMARK   40  A    between atoms: _93  and  _94
REMARK   41  A    between atoms: _93  and  _96
REMARK   42  A    between atoms: _96  and  _97
REMARK   43  A    between atoms: _97  and  _98
REMARK   44  A    between atoms: _103  and  _105
REMARK   45  A    between atoms: _105  and  _106
REMARK   46  A    between atoms: _105  and  _108
REMARK   47  A    between atoms: _108  and  _109
REMARK   48  A    between atoms: _112  and  _114
REMARK   49  A    between atoms: _114  and  _115
REMARK   50  A    between atoms: _118  and  _120
REMARK   51  A    between atoms: _120  and  _121
REMARK   52  A    between atoms: _123  and  _125
REMARK   53  A    between atoms: _125  and  _126
REMARK   54  A    between atoms: _125  and  _128
REMARK   55  A    between atoms: _128  and  _129
REMARK   56  A    between atoms: _129  and  _130
REMARK   57  A    between atoms: _130  and  _131
REMARK   58  A    between atoms: _140  and  _142
REMARK   59  A    between atoms: _142  and  _143
REMARK   60  A    between atoms: _145  and  _147
REMARK   61  A    between atoms: _147  and  _148
REMARK   62  A    between atoms: _147  and  _150
REMARK   63  A    between atoms: _150  and  _151
REMARK   64  A    between atoms: _151  and  _152
REMARK   65  A    between atoms: _152  and  _153
REMARK   66  A    between atoms: _162  and  _164
REMARK   67  A    between atoms: _164  and  _165
REMARK   68  A    between atoms: _164  and  _167
REMARK   69  A    between atoms: _167  and  _168
REMARK   70  A    between atoms: _173  and  _175
REMARK   71  A    between atoms: _175  and  _176
REMARK   72  A    between atoms: _178  and  _180
REMARK   73  A    between atoms: _180  and  _181
REMARK   74  A    between atoms: _180  and  _183
REMARK   75  A    between atoms: _183  and  _184
REMARK   76  A    between atoms: _184  and  _185
REMARK   77  A    between atoms: _185  and  _186
REMARK   78  A    between atoms: _195  and  _197
REMARK   79  A    between atoms: _197  and  _198
REMARK   80  A    between atoms: _200  and  _202
REMARK   81  A    between atoms: _202  and  _203
REMARK   82  A    between atoms: _202  and  _205
REMARK   83  A    between atoms: _205  and  _206
REMARK   84  A    between atoms: _216  and  _218
REMARK   85  A    between atoms: _218  and  _219
REMARK   86  A    between atoms: _222  and  _224
REMARK   87  A    between atoms: _224  and  _225
REMARK   88  A    between atoms: _228  and  _230
REMARK   89  A    between atoms: _230  and  _231
REMARK   90  A    between atoms: _230  and  _233
REMARK   91  A    between atoms: _233  and  _234
REMARK   92  A    between atoms: _237  and  _239
REMARK   93  A    between atoms: _239  and  _240
REMARK   94  A    between atoms: _239  and  _242
REMARK   95  A    between atoms: _242  and  _243
REMARK   96  A    between atoms: _243  and  _244
REMARK   97  A    between atoms: _249  and  _251
REMARK   98  A    between atoms: _251  and  _252
REMARK   99  A    between atoms: _251  and  _254
REMARK  100  A    between atoms: _254  and  _255
REMARK  101  A    between atoms: _258  and  _260
REMARK  102  A    between atoms: _260  and  _261
REMARK  103  A    between atoms: _260  and  _263
REMARK  104  A    between atoms: _263  and  _264
REMARK  105  A    between atoms: _267  and  _269
REMARK  106  A    between atoms: _269  and  _270
REMARK  107  A    between atoms: _269  and  _272
REMARK  108  A    between atoms: _272  and  _273
REMARK  109  A    between atoms: _276  and  _278
REMARK  110  A    between atoms: _278  and  _279
REMARK  111  A    between atoms: _278  and  _281
REMARK  112  A    between atoms: _281  and  _282
REMARK  113  A    between atoms: _284  and  _286
REMARK  114  A    between atoms: _286  and  _287
REMARK  115  A    between atoms: _286  and  _289
REMARK  116  A    between atoms: _292  and  _294
REMARK  117  A    between atoms: _294  and  _295
REMARK  118  A    between atoms: _294  and  _297
REMARK  119  A    between atoms: _297  and  _298
REMARK  120  A    between atoms: _298  and  _299
REMARK  121  A    between atoms: _299  and  _300
REMARK  122  A    between atoms: _300  and  _301
REMARK  123  A    between atoms: _305  and  _307
REMARK  124  A    between atoms: _307  and  _308
REMARK  125  A    between atoms: _307  and  _310
REMARK  126  A    between atoms: _310  and  _311
REMARK  127  A    between atoms: _322  and  _323
REMARK  128  A    between atoms: _328  and  _330
REMARK  129  A    between atoms: _330  and  _331
REMARK  130  A    between atoms: _330  and  _333
REMARK  131  A    between atoms: _333  and  _334
REMARK  132  A    between atoms: _339  and  _341
REMARK  133  A    between atoms: _341  and  _342
REMARK  134  A    between atoms: _341  and  _344
REMARK  135  A    between atoms: _344  and  _345
REMARK  136  A    between atoms: _348  and  _350
REMARK  137  A    between atoms: _350  and  _351
REMARK  138  A    between atoms: _350  and  _353
REMARK  139  A    between atoms: _356  and  _358
REMARK  140  A    between atoms: _358  and  _359
REMARK  141  A    between atoms: _361  and  _363
REMARK  142  A    between atoms: _363  and  _364
REMARK  143  A    between atoms: _363  and  _366
REMARK  144  A    between atoms: _366  and  _367
REMARK  145  A    between atoms: _367  and  _368
REMARK  146  A    between atoms: _368  and  _369
REMARK  147  A    between atoms: _369  and  _370
REMARK  148  A    between atoms: _374  and  _376
REMARK  149  A    between atoms: _376  and  _377
REMARK  150  A    between atoms: _376  and  _379
REMARK  151  A    between atoms: _379  and  _380
REMARK  152  A    between atoms: _383  and  _385
REMARK  153  A    between atoms: _385  and  _386
REMARK  154  A    between atoms: _389  and  _391
REMARK  155  A    between atoms: _391  and  _392
REMARK  156  A    between atoms: _394  and  _396
REMARK  157  A    between atoms: _396  and  _397
REMARK  158  A    between atoms: _396  and  _399
REMARK  159  A    between atoms: _399  and  _400
REMARK  160  A    between atoms: _403  and  _405
REMARK  161  A    between atoms: _405  and  _406
REMARK  162  A    between atoms: _405  and  _408
REMARK  163  A    between atoms: _408  and  _409
REMARK  164  A    between atoms: _412  and  _414
REMARK  165  A    between atoms: _414  and  _415
REMARK  166  A    between atoms: _418  and  _420
REMARK  167  A    between atoms: _420  and  _421
REMARK  168  A    between atoms: _420  and  _423
REMARK  169  A    between atoms: _423  and  _424
REMARK  170  A    between atoms: _424  and  _425
REMARK  171  A    between atoms: _428  and  _430
REMARK  172  A    between atoms: _430  and  _431
REMARK  173  A    between atoms: _430  and  _433
REMARK  174  A    between atoms: _436  and  _438
REMARK  175  A    between atoms: _438  and  _439
REMARK  176  A    between atoms: _438  and  _441
REMARK  177  A    between atoms: _441  and  _442
REMARK  178  A    between atoms: _445  and  _447
REMARK  179  A    between atoms: _447  and  _448
REMARK  180  A    between atoms: _450  and  _452
REMARK  181  A    between atoms: _452  and  _453
REMARK  182  A    between atoms: _452  and  _455
REMARK  183  A    between atoms: _458  and  _460
REMARK  184  A    between atoms: _460  and  _461
REMARK  185  A    between atoms: _463  and  _465
REMARK  186  A    between atoms: _465  and  _466
REMARK  187  A    between atoms: _465  and  _468
REMARK  188  A    between atoms: _468  and  _469
REMARK  189  A    between atoms: _472  and  _474
REMARK  190  A    between atoms: _474  and  _475
REMARK  191  A    between atoms: _474  and  _477
REMARK  192  A    between atoms: _477  and  _478
REMARK  193  A    between atoms: _483  and  _485
REMARK  194  A    between atoms: _485  and  _486
REMARK  195  A    between atoms: _485  and  _488
REMARK  196  A    between atoms: _491  and  _493
REMARK  197  A    between atoms: _493  and  _494
REMARK  198  A    between atoms: _493  and  _496
REMARK  199  A    between atoms: _496  and  _497
REMARK  200  A    between atoms: _497  and  _498
REMARK  201  A    between atoms: _503  and  _505
REMARK  202  A    between atoms: _505  and  _506
REMARK  203  A    between atoms: _510  and  _511
REMARK  204  A    between atoms: _516  and  _518
REMARK  205  A    between atoms: _518  and  _519
REMARK  206  A    between atoms: _518  and  _521
REMARK  207  A    between atoms: _521  and  _522
REMARK  208  A    between atoms: _522  and  _523
REMARK  209  A    between atoms: _526  and  _528
REMARK  210  A    between atoms: _528  and  _529
REMARK  211  A    between atoms: _528  and  _531
REMARK  212  A    between atoms: _534  and  _536
REMARK  213  A    between atoms: _536  and  _537
REMARK  214  A    between atoms: _536  and  _539
REMARK  215  A    between atoms: _539  and  _540
REMARK  216  A    between atoms: _544  and  _545
REMARK  217  A    between atoms: _550  and  _552
REMARK  218  A    between atoms: _552  and  _553
REMARK  219  A    between atoms: _552  and  _555
REMARK  220  A    between atoms: _555  and  _556
REMARK  221  A    between atoms: _559  and  _561
REMARK  222  A    between atoms: _561  and  _562
REMARK  223  A    between atoms: _565  and  _567
REMARK  224  A    between atoms: _567  and  _568
REMARK  225  A    between atoms: _567  and  _570
REMARK  226  A    between atoms: _570  and  _571
REMARK  227  A    between atoms: _574  and  _576
REMARK  228  A    between atoms: _576  and  _577
REMARK  229  A    between atoms: _576  and  _579
REMARK  230  A    between atoms: _579  and  _580
REMARK  231  A    between atoms: _582  and  _584
REMARK  232  A    between atoms: _584  and  _585
REMARK  233  A    between atoms: _587  and  _589
REMARK  234  A    between atoms: _589  and  _590
REMARK  235  A    between atoms: _589  and  _592
REMARK  236  A    between atoms: _592  and  _593
REMARK  237  A    between atoms: _596  and  _598
REMARK  238  A    between atoms: _598  and  _599
REMARK  239  A    between atoms: _598  and  _601
REMARK                            x       y       z     vdW  Elec       q    Type
REMARK                         _______ _______ _______ _____ _____    ______ ____
ROOT
ATOM      1  O   HOH     1      -1.646  -4.323  -2.468  0.00  0.00    +0.000 OA
ENDROOT
TORSDOF 0
REMARK  Name = ../refined-set-2016/4xty/4xty_pocket.pdb
REMARK  239 active torsions:
REMARK  status: ('A' for Active; 'I' for Inactive)
REMARK    1  A    between atoms: _1  and  _3
REMARK    2  A    between atoms: _3  and  _4
REMARK    3  A    between atoms: _3  and  _6
REMARK    4  A    between atoms: _6  and  _7
REMARK    5  A    between atoms: _10  and  _12
REMARK    6  A    between atoms: _12  and  _13
REMARK    7  A    between atoms: _15  and  _17
REMARK    8  A    between atoms: _17  and  _18
REMARK    9  A    between atoms: _17  and  _20
REMARK   10  A    between atoms: _20  and  _21
REMARK   11  A    between atoms: _23  and  _25
REMARK   12  A    between atoms: _25  and  _26
REMARK   13  A    between atoms: _25  and  _28
REMARK   14  A    between atoms: _28  and  _29
REMARK   15  A    between atoms: _32  and  _34
REMARK   16  A    between atoms: _34  and  _35
REMARK   17  A    between atoms: _34  and  _37
REMARK   18  A    between atoms: _37  and  _38
REMARK   19  A    between atoms: _43  and  _45
REMARK   20  A    between atoms: _45  and  _46
REMARK   21  A    between atoms: _49  and  _51
REMARK   22  A    between atoms: _51  and  _52
REMARK   23  A    between atoms: _51  and  _54
REMARK   24  A    between atoms: _54  and  _55
REMARK   25  A    between atoms: _58  and  _60
REMARK   26  A    between atoms: _60  and  _61
REMARK   27  A    between atoms: _60  and  _63
REMARK   28  A    between atoms: _63  and  _64
REMARK   29  A    between atoms: _67  and  _69
REMARK   30  A    between atoms: _69  and  _70
REMARK   31  A    between atoms: _69  and  _72
REMARK   32  A    between atoms: _72  and  _73
REMARK   33  A    between atoms: _76  and  _78
REMARK   34  A    between atoms: _78  and  _79
REMARK   35  A    between atoms: _78  and  _81
REMARK   36  A    between atoms: _81  and  _82
REMARK   37  A    between atoms: _85  and  _87
REMARK   38  A    between atoms: _87  and  _88
REMARK   39  A    between atoms: _91  and  _93
REMARK   40  A    between atoms: _93  and  _94
REMARK   41  A    between atoms: _93  and  _96
REMARK   42  A    between atoms: _96  and  _97
REMARK   43  A    between atoms: _97  and  _98
REMARK   44  A    between atoms: _103  and  _105
REMARK   45  A    between atoms: _105  and  _106
REMARK   46  A    between atoms: _105  and  _108
REMARK   47  A    between atoms: _108  and  _109
REMARK   48  A    between atoms: _112  and  _114
REMARK   49  A    between atoms: _114  and  _115
REMARK   50  A    between atoms: _118  and  _120
REMARK   51  A    between atoms: _120  and  _121
REMARK   52  A    between atoms: _123  and  _125
REMARK   53  A    between atoms: _125  and  _126
REMARK   54  A    between atoms: _125  and  _128
REMARK   55  A    between atoms: _128  and  _129
REMARK   56  A    between atoms: _129  and  _130
REMARK   57  A    between atoms: _130  and  _131
REMARK   58  A    between atoms: _140  and  _142
REMARK   59  A    between atoms: _142  and  _143
REMARK   60  A    between atoms: _145  and  _147
REMARK   61  A    between atoms: _147  and  _148
REMARK   62  A    between atoms: _147  and  _150
REMARK   63  A    between atoms: _150  and  _151
REMARK   64  A    between atoms: _151  and  _152
REMARK   65  A    between atoms: _152  and  _153
REMARK   66  A    between atoms: _162  and  _164
REMARK   67  A    between atoms: _164  and  _165
REMARK   68  A    between atoms: _164  and  _167
REMARK   69  A    between atoms: _167  and  _168
REMARK   70  A    between atoms: _173  and  _175
REMARK   71  A    between atoms: _175  and  _176
REMARK   72  A    between atoms: _178  and  _180
REMARK   73  A    between atoms: _180  and  _181
REMARK   74  A    between atoms: _180  and  _183
REMARK   75  A    between atoms: _183  and  _184
REMARK   76  A    between atoms: _184  and  _185
REMARK   77  A    between atoms: _185  and  _186
REMARK   78  A    between atoms: _195  and  _197
REMARK   79  A    between atoms: _197  and  _198
REMARK   80  A    between atoms: _200  and  _202
REMARK   81  A    between atoms: _202  and  _203
REMARK   82  A    between atoms: _202  and  _205
REMARK   83  A    between atoms: _205  and  _206
REMARK   84  A    between atoms: _216  and  _218
REMARK   85  A    between atoms: _218  and  _219
REMARK   86  A    between atoms: _222  and  _224
REMARK   87  A    between atoms: _224  and  _225
REMARK   88  A    between atoms: _228  and  _230
REMARK   89  A    between atoms: _230  and  _231
REMARK   90  A    between atoms: _230  and  _233
REMARK   91  A    between atoms: _233  and  _234
REMARK   92  A    between atoms: _237  and  _239
REMARK   93  A    between atoms: _239  and  _240
REMARK   94  A    between atoms: _239  and  _242
REMARK   95  A    between atoms: _242  and  _243
REMARK   96  A    between atoms: _243  and  _244
REMARK   97  A    between atoms: _249  and  _251
REMARK   98  A    between atoms: _251  and  _252
REMARK   99  A    between atoms: _251  and  _254
REMARK  100  A    between atoms: _254  and  _255
REMARK  101  A    between atoms: _258  and  _260
REMARK  102  A    between atoms: _260  and  _261
REMARK  103  A    between atoms: _260  and  _263
REMARK  104  A    between atoms: _263  and  _264
REMARK  105  A    between atoms: _267  and  _269
REMARK  106  A    between atoms: _269  and  _270
REMARK  107  A    between atoms: _269  and  _272
REMARK  108  A    between atoms: _272  and  _273
REMARK  109  A    between atoms: _276  and  _278
REMARK  110  A    between atoms: _278  and  _279
REMARK  111  A    between atoms: _278  and  _281
REMARK  112  A    between atoms: _281  and  _282
REMARK  113  A    between atoms: _284  and  _286
REMARK  114  A    between atoms: _286  and  _287
REMARK  115  A    between atoms: _286  and  _289
REMARK  116  A    between atoms: _292  and  _294
REMARK  117  A    between atoms: _294  and  _295
REMARK  118  A    between atoms: _294  and  _297
REMARK  119  A    between atoms: _297  and  _298
REMARK  120  A    between atoms: _298  and  _299
REMARK  121  A    between atoms: _299  and  _300
REMARK  122  A    between atoms: _300  and  _301
REMARK  123  A    between atoms: _305  and  _307
REMARK  124  A    between atoms: _307  and  _308
REMARK  125  A    between atoms: _307  and  _310
REMARK  126  A    between atoms: _310  and  _311
REMARK  127  A    between atoms: _322  and  _323
REMARK  128  A    between atoms: _328  and  _330
REMARK  129  A    between atoms: _330  and  _331
REMARK  130  A    between atoms: _330  and  _333
REMARK  131  A    between atoms: _333  and  _334
REMARK  132  A    between atoms: _339  and  _341
REMARK  133  A    between atoms: _341  and  _342
REMARK  134  A    between atoms: _341  and  _344
REMARK  135  A    between atoms: _344  and  _345
REMARK  136  A    between atoms: _348  and  _350
REMARK  137  A    between atoms: _350  and  _351
REMARK  138  A    between atoms: _350  and  _353
REMARK  139  A    between atoms: _356  and  _358
REMARK  140  A    between atoms: _358  and  _359
REMARK  141  A    between atoms: _361  and  _363
REMARK  142  A    between atoms: _363  and  _364
REMARK  143  A    between atoms: _363  and  _366
REMARK  144  A    between atoms: _366  and  _367
REMARK  145  A    between atoms: _367  and  _368
REMARK  146  A    between atoms: _368  and  _369
REMARK  147  A    between atoms: _369  and  _370
REMARK  148  A    between atoms: _374  and  _376
REMARK  149  A    between atoms: _376  and  _377
REMARK  150  A    between atoms: _376  and  _379
REMARK  151  A    between atoms: _379  and  _380
REMARK  152  A    between atoms: _383  and  _385
REMARK  153  A    between atoms: _385  and  _386
REMARK  154  A    between atoms: _389  and  _391
REMARK  155  A    between atoms: _391  and  _392
REMARK  156  A    between atoms: _394  and  _396
REMARK  157  A    between atoms: _396  and  _397
REMARK  158  A    between atoms: _396  and  _399
REMARK  159  A    between atoms: _399  and  _400
REMARK  160  A    between atoms: _403  and  _405
REMARK  161  A    between atoms: _405  and  _406
REMARK  162  A    between atoms: _405  and  _408
REMARK  163  A    between atoms: _408  and  _409
REMARK  164  A    between atoms: _412  and  _414
REMARK  165  A    between atoms: _414  and  _415
REMARK  166  A    between atoms: _418  and  _420
REMARK  167  A    between atoms: _420  and  _421
REMARK  168  A    between atoms: _420  and  _423
REMARK  169  A    between atoms: _423  and  _424
REMARK  170  A    between atoms: _424  and  _425
REMARK  171  A    between atoms: _428  and  _430
REMARK  172  A    between atoms: _430  and  _431
REMARK  173  A    between atoms: _430  and  _433
REMARK  174  A    between atoms: _436  and  _438
REMARK  175  A    between atoms: _438  and  _439
REMARK  176  A    between atoms: _438  and  _441
REMARK  177  A    between atoms: _441  and  _442
REMARK  178  A    between atoms: _445  and  _447
REMARK  179  A    between atoms: _447  and  _448
REMARK  180  A    between atoms: _450  and  _452
REMARK  181  A    between atoms: _452  and  _453
REMARK  182  A    between atoms: _452  and  _455
REMARK  183  A    between atoms: _458  and  _460
REMARK  184  A    between atoms: _460  and  _461
REMARK  185  A    between atoms: _463  and  _465
REMARK  186  A    between atoms: _465  and  _466
REMARK  187  A    between atoms: _465  and  _468
REMARK  188  A    between atoms: _468  and  _469
REMARK  189  A    between atoms: _472  and  _474
REMARK  190  A    between atoms: _474  and  _475
REMARK  191  A    between atoms: _474  and  _477
REMARK  192  A    between atoms: _477  and  _478
REMARK  193  A    between atoms: _483  and  _485
REMARK  194  A    between atoms: _485  and  _486
REMARK  195  A    between atoms: _485  and  _488
REMARK  196  A    between atoms: _491  and  _493
REMARK  197  A    between atoms: _493  and  _494
REMARK  198  A    between atoms: _493  and  _496
REMARK  199  A    between atoms: _496  and  _497
REMARK  200  A    between atoms: _497  and  _498
REMARK  201  A    between atoms: _503  and  _505
REMARK  202  A    between atoms: _505  and  _506
REMARK  203  A    between atoms: _510  and  _511
REMARK  204  A    between atoms: _516  and  _518
REMARK  205  A    between atoms: _518  and  _519
REMARK  206  A    between atoms: _518  and  _521
REMARK  207  A    between atoms: _521  and  _522
REMARK  208  A    between atoms: _522  and  _523
REMARK  209  A    between atoms: _526  and  _528
REMARK  210  A    between atoms: _528  and  _529
REMARK  211  A    between atoms: _528  and  _531
REMARK  212  A    between atoms: _534  and  _536
REMARK  213  A    between atoms: _536  and  _537
REMARK  214  A    between atoms: _536  and  _539
REMARK  215  A    between atoms: _539  and  _540
REMARK  216  A    between atoms: _544  and  _545
REMARK  217  A    between atoms: _550  and  _552
REMARK  218  A    between atoms: _552  and  _553
REMARK  219  A    between atoms: _552  and  _555
REMARK  220  A    between atoms: _555  and  _556
REMARK  221  A    between atoms: _559  and  _561
REMARK  222  A    between atoms: _561  and  _562
REMARK  223  A    between atoms: _565  and  _567
REMARK  224  A    between atoms: _567  and  _568
REMARK  225  A    between atoms: _567  and  _570
REMARK  226  A    between atoms: _570  and  _571
REMARK  227  A    between atoms: _574  and  _576
REMARK  228  A    between atoms: _576  and  _577
REMARK  229  A    between atoms: _576  and  _579
REMARK  230  A    between atoms: _579  and  _580
REMARK  231  A    between atoms: _582  and  _584
REMARK  232  A    between atoms: _584  and  _585
REMARK  233  A    between atoms: _587  and  _589
REMARK  234  A    between atoms: _589  and  _590
REMARK  235  A    between atoms: _589  and  _592
REMARK  236  A    between atoms: _592  and  _593
REMARK  237  A    between atoms: _596  and  _598
REMARK  238  A    between atoms: _598  and  _599
REMARK  239  A    between atoms: _598  and  _601
REMARK                            x       y       z     vdW  Elec       q    Type
REMARK                         _______ _______ _______ _____ _____    ______ ____
ROOT
ATOM      1  O   HOH     1       0.845   0.363   8.303  0.00  0.00    +0.000 OA
ENDROOT
TORSDOF 0
REMARK  Name = ../refined-set-2016/4xty/4xty_pocket.pdb
REMARK  239 active torsions:
REMARK  status: ('A' for Active; 'I' for Inactive)
REMARK    1  A    between atoms: _1  and  _3
REMARK    2  A    between atoms: _3  and  _4
REMARK    3  A    between atoms: _3  and  _6
REMARK    4  A    between atoms: _6  and  _7
REMARK    5  A    between atoms: _10  and  _12
REMARK    6  A    between atoms: _12  and  _13
REMARK    7  A    between atoms: _15  and  _17
REMARK    8  A    between atoms: _17  and  _18
REMARK    9  A    between atoms: _17  and  _20
REMARK   10  A    between atoms: _20  and  _21
REMARK   11  A    between atoms: _23  and  _25
REMARK   12  A    between atoms: _25  and  _26
REMARK   13  A    between atoms: _25  and  _28
REMARK   14  A    between atoms: _28  and  _29
REMARK   15  A    between atoms: _32  and  _34
REMARK   16  A    between atoms: _34  and  _35
REMARK   17  A    between atoms: _34  and  _37
REMARK   18  A    between atoms: _37  and  _38
REMARK   19  A    between atoms: _43  and  _45
REMARK   20  A    between atoms: _45  and  _46
REMARK   21  A    between atoms: _49  and  _51
REMARK   22  A    between atoms: _51  and  _52
REMARK   23  A    between atoms: _51  and  _54
REMARK   24  A    between atoms: _54  and  _55
REMARK   25  A    between atoms: _58  and  _60
REMARK   26  A    between atoms: _60  and  _61
REMARK   27  A    between atoms: _60  and  _63
REMARK   28  A    between atoms: _63  and  _64
REMARK   29  A    between atoms: _67  and  _69
REMARK   30  A    between atoms: _69  and  _70
REMARK   31  A    between atoms: _69  and  _72
REMARK   32  A    between atoms: _72  and  _73
REMARK   33  A    between atoms: _76  and  _78
REMARK   34  A    between atoms: _78  and  _79
REMARK   35  A    between atoms: _78  and  _81
REMARK   36  A    between atoms: _81  and  _82
REMARK   37  A    between atoms: _85  and  _87
REMARK   38  A    between atoms: _87  and  _88
REMARK   39  A    between atoms: _91  and  _93
REMARK   40  A    between atoms: _93  and  _94
REMARK   41  A    between atoms: _93  and  _96
REMARK   42  A    between atoms: _96  and  _97
REMARK   43  A    between atoms: _97  and  _98
REMARK   44  A    between atoms: _103  and  _105
REMARK   45  A    between atoms: _105  and  _106
REMARK   46  A    between atoms: _105  and  _108
REMARK   47  A    between atoms: _108  and  _109
REMARK   48  A    between atoms: _112  and  _114
REMARK   49  A    between atoms: _114  and  _115
REMARK   50  A    between atoms: _118  and  _120
REMARK   51  A    between atoms: _120  and  _121
REMARK   52  A    between atoms: _123  and  _125
REMARK   53  A    between atoms: _125  and  _126
REMARK   54  A    between atoms: _125  and  _128
REMARK   55  A    between atoms: _128  and  _129
REMARK   56  A    between atoms: _129  and  _130
REMARK   57  A    between atoms: _130  and  _131
REMARK   58  A    between atoms: _140  and  _142
REMARK   59  A    between atoms: _142  and  _143
REMARK   60  A    between atoms: _145  and  _147
REMARK   61  A    between atoms: _147  and  _148
REMARK   62  A    between atoms: _147  and  _150
REMARK   63  A    between atoms: _150  and  _151
REMARK   64  A    between atoms: _151  and  _152
REMARK   65  A    between atoms: _152  and  _153
REMARK   66  A    between atoms: _162  and  _164
REMARK   67  A    between atoms: _164  and  _165
REMARK   68  A    between atoms: _164  and  _167
REMARK   69  A    between atoms: _167  and  _168
REMARK   70  A    between atoms: _173  and  _175
REMARK   71  A    between atoms: _175  and  _176
REMARK   72  A    between atoms: _178  and  _180
REMARK   73  A    between atoms: _180  and  _181
REMARK   74  A    between atoms: _180  and  _183
REMARK   75  A    between atoms: _183  and  _184
REMARK   76  A    between atoms: _184  and  _185
REMARK   77  A    between atoms: _185  and  _186
REMARK   78  A    between atoms: _195  and  _197
REMARK   79  A    between atoms: _197  and  _198
REMARK   80  A    between atoms: _200  and  _202
REMARK   81  A    between atoms: _202  and  _203
REMARK   82  A    between atoms: _202  and  _205
REMARK   83  A    between atoms: _205  and  _206
REMARK   84  A    between atoms: _216  and  _218
REMARK   85  A    between atoms: _218  and  _219
REMARK   86  A    between atoms: _222  and  _224
REMARK   87  A    between atoms: _224  and  _225
REMARK   88  A    between atoms: _228  and  _230
REMARK   89  A    between atoms: _230  and  _231
REMARK   90  A    between atoms: _230  and  _233
REMARK   91  A    between atoms: _233  and  _234
REMARK   92  A    between atoms: _237  and  _239
REMARK   93  A    between atoms: _239  and  _240
REMARK   94  A    between atoms: _239  and  _242
REMARK   95  A    between atoms: _242  and  _243
REMARK   96  A    between atoms: _243  and  _244
REMARK   97  A    between atoms: _249  and  _251
REMARK   98  A    between atoms: _251  and  _252
REMARK   99  A    between atoms: _251  and  _254
REMARK  100  A    between atoms: _254  and  _255
REMARK  101  A    between atoms: _258  and  _260
REMARK  102  A    between atoms: _260  and  _261
REMARK  103  A    between atoms: _260  and  _263
REMARK  104  A    between atoms: _263  and  _264
REMARK  105  A    between atoms: _267  and  _269
REMARK  106  A    between atoms: _269  and  _270
REMARK  107  A    between atoms: _269  and  _272
REMARK  108  A    between atoms: _272  and  _273
REMARK  109  A    between atoms: _276  and  _278
REMARK  110  A    between atoms: _278  and  _279
REMARK  111  A    between atoms: _278  and  _281
REMARK  112  A    between atoms: _281  and  _282
REMARK  113  A    between atoms: _284  and  _286
REMARK  114  A    between atoms: _286  and  _287
REMARK  115  A    between atoms: _286  and  _289
REMARK  116  A    between atoms: _292  and  _294
REMARK  117  A    between atoms: _294  and  _295
REMARK  118  A    between atoms: _294  and  _297
REMARK  119  A    between atoms: _297  and  _298
REMARK  120  A    between atoms: _298  and  _299
REMARK  121  A    between atoms: _299  and  _300
REMARK  122  A    between atoms: _300  and  _301
REMARK  123  A    between atoms: _305  and  _307
REMARK  124  A    between atoms: _307  and  _308
REMARK  125  A    between atoms: _307  and  _310
REMARK  126  A    between atoms: _310  and  _311
REMARK  127  A    between atoms: _322  and  _323
REMARK  128  A    between atoms: _328  and  _330
REMARK  129  A    between atoms: _330  and  _331
REMARK  130  A    between atoms: _330  and  _333
REMARK  131  A    between atoms: _333  and  _334
REMARK  132  A    between atoms: _339  and  _341
REMARK  133  A    between atoms: _341  and  _342
REMARK  134  A    between atoms: _341  and  _344
REMARK  135  A    between atoms: _344  and  _345
REMARK  136  A    between atoms: _348  and  _350
REMARK  137  A    between atoms: _350  and  _351
REMARK  138  A    between atoms: _350  and  _353
REMARK  139  A    between atoms: _356  and  _358
REMARK  140  A    between atoms: _358  and  _359
REMARK  141  A    between atoms: _361  and  _363
REMARK  142  A    between atoms: _363  and  _364
REMARK  143  A    between atoms: _363  and  _366
REMARK  144  A    between atoms: _366  and  _367
REMARK  145  A    between atoms: _367  and  _368
REMARK  146  A    between atoms: _368  and  _369
REMARK  147  A    between atoms: _369  and  _370
REMARK  148  A    between atoms: _374  and  _376
REMARK  149  A    between atoms: _376  and  _377
REMARK  150  A    between atoms: _376  and  _379
REMARK  151  A    between atoms: _379  and  _380
REMARK  152  A    between atoms: _383  and  _385
REMARK  153  A    between atoms: _385  and  _386
REMARK  154  A    between atoms: _389  and  _391
REMARK  155  A    between atoms: _391  and  _392
REMARK  156  A    between atoms: _394  and  _396
REMARK  157  A    between atoms: _396  and  _397
REMARK  158  A    between atoms: _396  and  _399
REMARK  159  A    between atoms: _399  and  _400
REMARK  160  A    between atoms: _403  and  _405
REMARK  161  A    between atoms: _405  and  _406
REMARK  162  A    between atoms: _405  and  _408
REMARK  163  A    between atoms: _408  and  _409
REMARK  164  A    between atoms: _412  and  _414
REMARK  165  A    between atoms: _414  and  _415
REMARK  166  A    between atoms: _418  and  _420
REMARK  167  A    between atoms: _420  and  _421
REMARK  168  A    between atoms: _420  and  _423
REMARK  169  A    between atoms: _423  and  _424
REMARK  170  A    between atoms: _424  and  _425
REMARK  171  A    between atoms: _428  and  _430
REMARK  172  A    between atoms: _430  and  _431
REMARK  173  A    between atoms: _430  and  _433
REMARK  174  A    between atoms: _436  and  _438
REMARK  175  A    between atoms: _438  and  _439
REMARK  176  A    between atoms: _438  and  _441
REMARK  177  A    between atoms: _441  and  _442
REMARK  178  A    between atoms: _445  and  _447
REMARK  179  A    between atoms: _447  and  _448
REMARK  180  A    between atoms: _450  and  _452
REMARK  181  A    between atoms: _452  and  _453
REMARK  182  A    between atoms: _452  and  _455
REMARK  183  A    between atoms: _458  and  _460
REMARK  184  A    between atoms: _460  and  _461
REMARK  185  A    between atoms: _463  and  _465
REMARK  186  A    between atoms: _465  and  _466
REMARK  187  A    between atoms: _465  and  _468
REMARK  188  A    between atoms: _468  and  _469
REMARK  189  A    between atoms: _472  and  _474
REMARK  190  A    between atoms: _474  and  _475
REMARK  191  A    between atoms: _474  and  _477
REMARK  192  A    between atoms: _477  and  _478
REMARK  193  A    between atoms: _483  and  _485
REMARK  194  A    between atoms: _485  and  _486
REMARK  195  A    between atoms: _485  and  _488
REMARK  196  A    between atoms: _491  and  _493
REMARK  197  A    between atoms: _493  and  _494
REMARK  198  A    between atoms: _493  and  _496
REMARK  199  A    between atoms: _496  and  _497
REMARK  200  A    between atoms: _497  and  _498
REMARK  201  A    between atoms: _503  and  _505
REMARK  202  A    between atoms: _505  and  _506
REMARK  203  A    between atoms: _510  and  _511
REMARK  204  A    between atoms: _516  and  _518
REMARK  205  A    between atoms: _518  and  _519
REMARK  206  A    between atoms: _518  and  _521
REMARK  207  A    between atoms: _521  and  _522
REMARK  208  A    between atoms: _522  and  _523
REMARK  209  A    between atoms: _526  and  _528
REMARK  210  A    between atoms: _528  and  _529
REMARK  211  A    between atoms: _528  and  _531
REMARK  212  A    between atoms: _534  and  _536
REMARK  213  A    between atoms: _536  and  _537
REMARK  214  A    between atoms: _536  and  _539
REMARK  215  A    between atoms: _539  and  _540
REMARK  216  A    between atoms: _544  and  _545
REMARK  217  A    between atoms: _550  and  _552
REMARK  218  A    between atoms: _552  and  _553
REMARK  219  A    between atoms: _552  and  _555
REMARK  220  A    between atoms: _555  and  _556
REMARK  221  A    between atoms: _559  and  _561
REMARK  222  A    between atoms: _561  and  _562
REMARK  223  A    between atoms: _565  and  _567
REMARK  224  A    between atoms: _567  and  _568
REMARK  225  A    between atoms: _567  and  _570
REMARK  226  A    between atoms: _570  and  _571
REMARK  227  A    between atoms: _574  and  _576
REMARK  228  A    between atoms: _576  and  _577
REMARK  229  A    between atoms: _576  and  _579
REMARK  230  A    between atoms: _579  and  _580
REMARK  231  A    between atoms: _582  and  _584
REMARK  232  A    between atoms: _584  and  _585
REMARK  233  A    between atoms: _587  and  _589
REMARK  234  A    between atoms: _589  and  _590
REMARK  235  A    between atoms: _589  and  _592
REMARK  236  A    between atoms: _592  and  _593
REMARK  237  A    between atoms: _596  and  _598
REMARK  238  A    between atoms: _598  and  _599
REMARK  239  A    between atoms: _598  and  _601
REMARK                            x       y       z     vdW  Elec       q    Type
REMARK                         _______ _______ _______ _____ _____    ______ ____
ROOT
ATOM      1  O   HOH     1      -7.772  -5.202   3.329  0.00  0.00    +0.000 OA
ENDROOT
TORSDOF 0
REMARK  Name = ../refined-set-2016/4xty/4xty_pocket.pdb
REMARK  239 active torsions:
REMARK  status: ('A' for Active; 'I' for Inactive)
REMARK    1  A    between atoms: _1  and  _3
REMARK    2  A    between atoms: _3  and  _4
REMARK    3  A    between atoms: _3  and  _6
REMARK    4  A    between atoms: _6  and  _7
REMARK    5  A    between atoms: _10  and  _12
REMARK    6  A    between atoms: _12  and  _13
REMARK    7  A    between atoms: _15  and  _17
REMARK    8  A    between atoms: _17  and  _18
REMARK    9  A    between atoms: _17  and  _20
REMARK   10  A    between atoms: _20  and  _21
REMARK   11  A    between atoms: _23  and  _25
REMARK   12  A    between atoms: _25  and  _26
REMARK   13  A    between atoms: _25  and  _28
REMARK   14  A    between atoms: _28  and  _29
REMARK   15  A    between atoms: _32  and  _34
REMARK   16  A    between atoms: _34  and  _35
REMARK   17  A    between atoms: _34  and  _37
REMARK   18  A    between atoms: _37  and  _38
REMARK   19  A    between atoms: _43  and  _45
REMARK   20  A    between atoms: _45  and  _46
REMARK   21  A    between atoms: _49  and  _51
REMARK   22  A    between atoms: _51  and  _52
REMARK   23  A    between atoms: _51  and  _54
REMARK   24  A    between atoms: _54  and  _55
REMARK   25  A    between atoms: _58  and  _60
REMARK   26  A    between atoms: _60  and  _61
REMARK   27  A    between atoms: _60  and  _63
REMARK   28  A    between atoms: _63  and  _64
REMARK   29  A    between atoms: _67  and  _69
REMARK   30  A    between atoms: _69  and  _70
REMARK   31  A    between atoms: _69  and  _72
REMARK   32  A    between atoms: _72  and  _73
REMARK   33  A    between atoms: _76  and  _78
REMARK   34  A    between atoms: _78  and  _79
REMARK   35  A    between atoms: _78  and  _81
REMARK   36  A    between atoms: _81  and  _82
REMARK   37  A    between atoms: _85  and  _87
REMARK   38  A    between atoms: _87  and  _88
REMARK   39  A    between atoms: _91  and  _93
REMARK   40  A    between atoms: _93  and  _94
REMARK   41  A    between atoms: _93  and  _96
REMARK   42  A    between atoms: _96  and  _97
REMARK   43  A    between atoms: _97  and  _98
REMARK   44  A    between atoms: _103  and  _105
REMARK   45  A    between atoms: _105  and  _106
REMARK   46  A    between atoms: _105  and  _108
REMARK   47  A    between atoms: _108  and  _109
REMARK   48  A    between atoms: _112  and  _114
REMARK   49  A    between atoms: _114  and  _115
REMARK   50  A    between atoms: _118  and  _120
REMARK   51  A    between atoms: _120  and  _121
REMARK   52  A    between atoms: _123  and  _125
REMARK   53  A    between atoms: _125  and  _126
REMARK   54  A    between atoms: _125  and  _128
REMARK   55  A    between atoms: _128  and  _129
REMARK   56  A    between atoms: _129  and  _130
REMARK   57  A    between atoms: _130  and  _131
REMARK   58  A    between atoms: _140  and  _142
REMARK   59  A    between atoms: _142  and  _143
REMARK   60  A    between atoms: _145  and  _147
REMARK   61  A    between atoms: _147  and  _148
REMARK   62  A    between atoms: _147  and  _150
REMARK   63  A    between atoms: _150  and  _151
REMARK   64  A    between atoms: _151  and  _152
REMARK   65  A    between atoms: _152  and  _153
REMARK   66  A    between atoms: _162  and  _164
REMARK   67  A    between atoms: _164  and  _165
REMARK   68  A    between atoms: _164  and  _167
REMARK   69  A    between atoms: _167  and  _168
REMARK   70  A    between atoms: _173  and  _175
REMARK   71  A    between atoms: _175  and  _176
REMARK   72  A    between atoms: _178  and  _180
REMARK   73  A    between atoms: _180  and  _181
REMARK   74  A    between atoms: _180  and  _183
REMARK   75  A    between atoms: _183  and  _184
REMARK   76  A    between atoms: _184  and  _185
REMARK   77  A    between atoms: _185  and  _186
REMARK   78  A    between atoms: _195  and  _197
REMARK   79  A    between atoms: _197  and  _198
REMARK   80  A    between atoms: _200  and  _202
REMARK   81  A    between atoms: _202  and  _203
REMARK   82  A    between atoms: _202  and  _205
REMARK   83  A    between atoms: _205  and  _206
REMARK   84  A    between atoms: _216  and  _218
REMARK   85  A    between atoms: _218  and  _219
REMARK   86  A    between atoms: _222  and  _224
REMARK   87  A    between atoms: _224  and  _225
REMARK   88  A    between atoms: _228  and  _230
REMARK   89  A    between atoms: _230  and  _231
REMARK   90  A    between atoms: _230  and  _233
REMARK   91  A    between atoms: _233  and  _234
REMARK   92  A    between atoms: _237  and  _239
REMARK   93  A    between atoms: _239  and  _240
REMARK   94  A    between atoms: _239  and  _242
REMARK   95  A    between atoms: _242  and  _243
REMARK   96  A    between atoms: _243  and  _244
REMARK   97  A    between atoms: _249  and  _251
REMARK   98  A    between atoms: _251  and  _252
REMARK   99  A    between atoms: _251  and  _254
REMARK  100  A    between atoms: _254  and  _255
REMARK  101  A    between atoms: _258  and  _260
REMARK  102  A    between atoms: _260  and  _261
REMARK  103  A    between atoms: _260  and  _263
REMARK  104  A    between atoms: _263  and  _264
REMARK  105  A    between atoms: _267  and  _269
REMARK  106  A    between atoms: _269  and  _270
REMARK  107  A    between atoms: _269  and  _272
REMARK  108  A    between atoms: _272  and  _273
REMARK  109  A    between atoms: _276  and  _278
REMARK  110  A    between atoms: _278  and  _279
REMARK  111  A    between atoms: _278  and  _281
REMARK  112  A    between atoms: _281  and  _282
REMARK  113  A    between atoms: _284  and  _286
REMARK  114  A    between atoms: _286  and  _287
REMARK  115  A    between atoms: _286  and  _289
REMARK  116  A    between atoms: _292  and  _294
REMARK  117  A    between atoms: _294  and  _295
REMARK  118  A    between atoms: _294  and  _297
REMARK  119  A    between atoms: _297  and  _298
REMARK  120  A    between atoms: _298  and  _299
REMARK  121  A    between atoms: _299  and  _300
REMARK  122  A    between atoms: _300  and  _301
REMARK  123  A    between atoms: _305  and  _307
REMARK  124  A    between atoms: _307  and  _308
REMARK  125  A    between atoms: _307  and  _310
REMARK  126  A    between atoms: _310  and  _311
REMARK  127  A    between atoms: _322  and  _323
REMARK  128  A    between atoms: _328  and  _330
REMARK  129  A    between atoms: _330  and  _331
REMARK  130  A    between atoms: _330  and  _333
REMARK  131  A    between atoms: _333  and  _334
REMARK  132  A    between atoms: _339  and  _341
REMARK  133  A    between atoms: _341  and  _342
REMARK  134  A    between atoms: _341  and  _344
REMARK  135  A    between atoms: _344  and  _345
REMARK  136  A    between atoms: _348  and  _350
REMARK  137  A    between atoms: _350  and  _351
REMARK  138  A    between atoms: _350  and  _353
REMARK  139  A    between atoms: _356  and  _358
REMARK  140  A    between atoms: _358  and  _359
REMARK  141  A    between atoms: _361  and  _363
REMARK  142  A    between atoms: _363  and  _364
REMARK  143  A    between atoms: _363  and  _366
REMARK  144  A    between atoms: _366  and  _367
REMARK  145  A    between atoms: _367  and  _368
REMARK  146  A    between atoms: _368  and  _369
REMARK  147  A    between atoms: _369  and  _370
REMARK  148  A    between atoms: _374  and  _376
REMARK  149  A    between atoms: _376  and  _377
REMARK  150  A    between atoms: _376  and  _379
REMARK  151  A    between atoms: _379  and  _380
REMARK  152  A    between atoms: _383  and  _385
REMARK  153  A    between atoms: _385  and  _386
REMARK  154  A    between atoms: _389  and  _391
REMARK  155  A    between atoms: _391  and  _392
REMARK  156  A    between atoms: _394  and  _396
REMARK  157  A    between atoms: _396  and  _397
REMARK  158  A    between atoms: _396  and  _399
REMARK  159  A    between atoms: _399  and  _400
REMARK  160  A    between atoms: _403  and  _405
REMARK  161  A    between atoms: _405  and  _406
REMARK  162  A    between atoms: _405  and  _408
REMARK  163  A    between atoms: _408  and  _409
REMARK  164  A    between atoms: _412  and  _414
REMARK  165  A    between atoms: _414  and  _415
REMARK  166  A    between atoms: _418  and  _420
REMARK  167  A    between atoms: _420  and  _421
REMARK  168  A    between atoms: _420  and  _423
REMARK  169  A    between atoms: _423  and  _424
REMARK  170  A    between atoms: _424  and  _425
REMARK  171  A    between atoms: _428  and  _430
REMARK  172  A    between atoms: _430  and  _431
REMARK  173  A    between atoms: _430  and  _433
REMARK  174  A    between atoms: _436  and  _438
REMARK  175  A    between atoms: _438  and  _439
REMARK  176  A    between atoms: _438  and  _441
REMARK  177  A    between atoms: _441  and  _442
REMARK  178  A    between atoms: _445  and  _447
REMARK  179  A    between atoms: _447  and  _448
REMARK  180  A    between atoms: _450  and  _452
REMARK  181  A    between atoms: _452  and  _453
REMARK  182  A    between atoms: _452  and  _455
REMARK  183  A    between atoms: _458  and  _460
REMARK  184  A    between atoms: _460  and  _461
REMARK  185  A    between atoms: _463  and  _465
REMARK  186  A    between atoms: _465  and  _466
REMARK  187  A    between atoms: _465  and  _468
REMARK  188  A    between atoms: _468  and  _469
REMARK  189  A    between atoms: _472  and  _474
REMARK  190  A    between atoms: _474  and  _475
REMARK  191  A    between atoms: _474  and  _477
REMARK  192  A    between atoms: _477  and  _478
REMARK  193  A    between atoms: _483  and  _485
REMARK  194  A    between atoms: _485  and  _486
REMARK  195  A    between atoms: _485  and  _488
REMARK  196  A    between atoms: _491  and  _493
REMARK  197  A    between atoms: _493  and  _494
REMARK  198  A    between atoms: _493  and  _496
REMARK  199  A    between atoms: _496  and  _497
REMARK  200  A    between atoms: _497  and  _498
REMARK  201  A    between atoms: _503  and  _505
REMARK  202  A    between atoms: _505  and  _506
REMARK  203  A    between atoms: _510  and  _511
REMARK  204  A    between atoms: _516  and  _518
REMARK  205  A    between atoms: _518  and  _519
REMARK  206  A    between atoms: _518  and  _521
REMARK  207  A    between atoms: _521  and  _522
REMARK  208  A    between atoms: _522  and  _523
REMARK  209  A    between atoms: _526  and  _528
REMARK  210  A    between atoms: _528  and  _529
REMARK  211  A    between atoms: _528  and  _531
REMARK  212  A    between atoms: _534  and  _536
REMARK  213  A    between atoms: _536  and  _537
REMARK  214  A    between atoms: _536  and  _539
REMARK  215  A    between atoms: _539  and  _540
REMARK  216  A    between atoms: _544  and  _545
REMARK  217  A    between atoms: _550  and  _552
REMARK  218  A    between atoms: _552  and  _553
REMARK  219  A    between atoms: _552  and  _555
REMARK  220  A    between atoms: _555  and  _556
REMARK  221  A    between atoms: _559  and  _561
REMARK  222  A    between atoms: _561  and  _562
REMARK  223  A    between atoms: _565  and  _567
REMARK  224  A    between atoms: _567  and  _568
REMARK  225  A    between atoms: _567  and  _570
REMARK  226  A    between atoms: _570  and  _571
REMARK  227  A    between atoms: _574  and  _576
REMARK  228  A    between atoms: _576  and  _577
REMARK  229  A    between atoms: _576  and  _579
REMARK  230  A    between atoms: _579  and  _580
REMARK  231  A    between atoms: _582  and  _584
REMARK  232  A    between atoms: _584  and  _585
REMARK  233  A    between atoms: _587  and  _589
REMARK  234  A    between atoms: _589  and  _590
REMARK  235  A    between atoms: _589  and  _592
REMARK  236  A    between atoms: _592  and  _593
REMARK  237  A    between atoms: _596  and  _598
REMARK  238  A    between atoms: _598  and  _599
REMARK  239  A    between atoms: _598  and  _601
REMARK                            x       y       z     vdW  Elec       q    Type
REMARK                         _______ _______ _______ _____ _____    ______ ____
ROOT
ATOM      1  O   HOH     1      -3.189 -13.088   5.392  0.00  0.00    +0.000 OA
ENDROOT
TORSDOF 0
REMARK  Name = ../refined-set-2016/4xty/4xty_pocket.pdb
REMARK  239 active torsions:
REMARK  status: ('A' for Active; 'I' for Inactive)
REMARK    1  A    between atoms: _1  and  _3
REMARK    2  A    between atoms: _3  and  _4
REMARK    3  A    between atoms: _3  and  _6
REMARK    4  A    between atoms: _6  and  _7
REMARK    5  A    between atoms: _10  and  _12
REMARK    6  A    between atoms: _12  and  _13
REMARK    7  A    between atoms: _15  and  _17
REMARK    8  A    between atoms: _17  and  _18
REMARK    9  A    between atoms: _17  and  _20
REMARK   10  A    between atoms: _20  and  _21
REMARK   11  A    between atoms: _23  and  _25
REMARK   12  A    between atoms: _25  and  _26
REMARK   13  A    between atoms: _25  and  _28
REMARK   14  A    between atoms: _28  and  _29
REMARK   15  A    between atoms: _32  and  _34
REMARK   16  A    between atoms: _34  and  _35
REMARK   17  A    between atoms: _34  and  _37
REMARK   18  A    between atoms: _37  and  _38
REMARK   19  A    between atoms: _43  and  _45
REMARK   20  A    between atoms: _45  and  _46
REMARK   21  A    between atoms: _49  and  _51
REMARK   22  A    between atoms: _51  and  _52
REMARK   23  A    between atoms: _51  and  _54
REMARK   24  A    between atoms: _54  and  _55
REMARK   25  A    between atoms: _58  and  _60
REMARK   26  A    between atoms: _60  and  _61
REMARK   27  A    between atoms: _60  and  _63
REMARK   28  A    between atoms: _63  and  _64
REMARK   29  A    between atoms: _67  and  _69
REMARK   30  A    between atoms: _69  and  _70
REMARK   31  A    between atoms: _69  and  _72
REMARK   32  A    between atoms: _72  and  _73
REMARK   33  A    between atoms: _76  and  _78
REMARK   34  A    between atoms: _78  and  _79
REMARK   35  A    between atoms: _78  and  _81
REMARK   36  A    between atoms: _81  and  _82
REMARK   37  A    between atoms: _85  and  _87
REMARK   38  A    between atoms: _87  and  _88
REMARK   39  A    between atoms: _91  and  _93
REMARK   40  A    between atoms: _93  and  _94
REMARK   41  A    between atoms: _93  and  _96
REMARK   42  A    between atoms: _96  and  _97
REMARK   43  A    between atoms: _97  and  _98
REMARK   44  A    between atoms: _103  and  _105
REMARK   45  A    between atoms: _105  and  _106
REMARK   46  A    between atoms: _105  and  _108
REMARK   47  A    between atoms: _108  and  _109
REMARK   48  A    between atoms: _112  and  _114
REMARK   49  A    between atoms: _114  and  _115
REMARK   50  A    between atoms: _118  and  _120
REMARK   51  A    between atoms: _120  and  _121
REMARK   52  A    between atoms: _123  and  _125
REMARK   53  A    between atoms: _125  and  _126
REMARK   54  A    between atoms: _125  and  _128
REMARK   55  A    between atoms: _128  and  _129
REMARK   56  A    between atoms: _129  and  _130
REMARK   57  A    between atoms: _130  and  _131
REMARK   58  A    between atoms: _140  and  _142
REMARK   59  A    between atoms: _142  and  _143
REMARK   60  A    between atoms: _145  and  _147
REMARK   61  A    between atoms: _147  and  _148
REMARK   62  A    between atoms: _147  and  _150
REMARK   63  A    between atoms: _150  and  _151
REMARK   64  A    between atoms: _151  and  _152
REMARK   65  A    between atoms: _152  and  _153
REMARK   66  A    between atoms: _162  and  _164
REMARK   67  A    between atoms: _164  and  _165
REMARK   68  A    between atoms: _164  and  _167
REMARK   69  A    between atoms: _167  and  _168
REMARK   70  A    between atoms: _173  and  _175
REMARK   71  A    between atoms: _175  and  _176
REMARK   72  A    between atoms: _178  and  _180
REMARK   73  A    between atoms: _180  and  _181
REMARK   74  A    between atoms: _180  and  _183
REMARK   75  A    between atoms: _183  and  _184
REMARK   76  A    between atoms: _184  and  _185
REMARK   77  A    between atoms: _185  and  _186
REMARK   78  A    between atoms: _195  and  _197
REMARK   79  A    between atoms: _197  and  _198
REMARK   80  A    between atoms: _200  and  _202
REMARK   81  A    between atoms: _202  and  _203
REMARK   82  A    between atoms: _202  and  _205
REMARK   83  A    between atoms: _205  and  _206
REMARK   84  A    between atoms: _216  and  _218
REMARK   85  A    between atoms: _218  and  _219
REMARK   86  A    between atoms: _222  and  _224
REMARK   87  A    between atoms: _224  and  _225
REMARK   88  A    between atoms: _228  and  _230
REMARK   89  A    between atoms: _230  and  _231
REMARK   90  A    between atoms: _230  and  _233
REMARK   91  A    between atoms: _233  and  _234
REMARK   92  A    between atoms: _237  and  _239
REMARK   93  A    between atoms: _239  and  _240
REMARK   94  A    between atoms: _239  and  _242
REMARK   95  A    between atoms: _242  and  _243
REMARK   96  A    between atoms: _243  and  _244
REMARK   97  A    between atoms: _249  and  _251
REMARK   98  A    between atoms: _251  and  _252
REMARK   99  A    between atoms: _251  and  _254
REMARK  100  A    between atoms: _254  and  _255
REMARK  101  A    between atoms: _258  and  _260
REMARK  102  A    between atoms: _260  and  _261
REMARK  103  A    between atoms: _260  and  _263
REMARK  104  A    between atoms: _263  and  _264
REMARK  105  A    between atoms: _267  and  _269
REMARK  106  A    between atoms: _269  and  _270
REMARK  107  A    between atoms: _269  and  _272
REMARK  108  A    between atoms: _272  and  _273
REMARK  109  A    between atoms: _276  and  _278
REMARK  110  A    between atoms: _278  and  _279
REMARK  111  A    between atoms: _278  and  _281
REMARK  112  A    between atoms: _281  and  _282
REMARK  113  A    between atoms: _284  and  _286
REMARK  114  A    between atoms: _286  and  _287
REMARK  115  A    between atoms: _286  and  _289
REMARK  116  A    between atoms: _292  and  _294
REMARK  117  A    between atoms: _294  and  _295
REMARK  118  A    between atoms: _294  and  _297
REMARK  119  A    between atoms: _297  and  _298
REMARK  120  A    between atoms: _298  and  _299
REMARK  121  A    between atoms: _299  and  _300
REMARK  122  A    between atoms: _300  and  _301
REMARK  123  A    between atoms: _305  and  _307
REMARK  124  A    between atoms: _307  and  _308
REMARK  125  A    between atoms: _307  and  _310
REMARK  126  A    between atoms: _310  and  _311
REMARK  127  A    between atoms: _322  and  _323
REMARK  128  A    between atoms: _328  and  _330
REMARK  129  A    between atoms: _330  and  _331
REMARK  130  A    between atoms: _330  and  _333
REMARK  131  A    between atoms: _333  and  _334
REMARK  132  A    between atoms: _339  and  _341
REMARK  133  A    between atoms: _341  and  _342
REMARK  134  A    between atoms: _341  and  _344
REMARK  135  A    between atoms: _344  and  _345
REMARK  136  A    between atoms: _348  and  _350
REMARK  137  A    between atoms: _350  and  _351
REMARK  138  A    between atoms: _350  and  _353
REMARK  139  A    between atoms: _356  and  _358
REMARK  140  A    between atoms: _358  and  _359
REMARK  141  A    between atoms: _361  and  _363
REMARK  142  A    between atoms: _363  and  _364
REMARK  143  A    between atoms: _363  and  _366
REMARK  144  A    between atoms: _366  and  _367
REMARK  145  A    between atoms: _367  and  _368
REMARK  146  A    between atoms: _368  and  _369
REMARK  147  A    between atoms: _369  and  _370
REMARK  148  A    between atoms: _374  and  _376
REMARK  149  A    between atoms: _376  and  _377
REMARK  150  A    between atoms: _376  and  _379
REMARK  151  A    between atoms: _379  and  _380
REMARK  152  A    between atoms: _383  and  _385
REMARK  153  A    between atoms: _385  and  _386
REMARK  154  A    between atoms: _389  and  _391
REMARK  155  A    between atoms: _391  and  _392
REMARK  156  A    between atoms: _394  and  _396
REMARK  157  A    between atoms: _396  and  _397
REMARK  158  A    between atoms: _396  and  _399
REMARK  159  A    between atoms: _399  and  _400
REMARK  160  A    between atoms: _403  and  _405
REMARK  161  A    between atoms: _405  and  _406
REMARK  162  A    between atoms: _405  and  _408
REMARK  163  A    between atoms: _408  and  _409
REMARK  164  A    between atoms: _412  and  _414
REMARK  165  A    between atoms: _414  and  _415
REMARK  166  A    between atoms: _418  and  _420
REMARK  167  A    between atoms: _420  and  _421
REMARK  168  A    between atoms: _420  and  _423
REMARK  169  A    between atoms: _423  and  _424
REMARK  170  A    between atoms: _424  and  _425
REMARK  171  A    between atoms: _428  and  _430
REMARK  172  A    between atoms: _430  and  _431
REMARK  173  A    between atoms: _430  and  _433
REMARK  174  A    between atoms: _436  and  _438
REMARK  175  A    between atoms: _438  and  _439
REMARK  176  A    between atoms: _438  and  _441
REMARK  177  A    between atoms: _441  and  _442
REMARK  178  A    between atoms: _445  and  _447
REMARK  179  A    between atoms: _447  and  _448
REMARK  180  A    between atoms: _450  and  _452
REMARK  181  A    between atoms: _452  and  _453
REMARK  182  A    between atoms: _452  and  _455
REMARK  183  A    between atoms: _458  and  _460
REMARK  184  A    between atoms: _460  and  _461
REMARK  185  A    between atoms: _463  and  _465
REMARK  186  A    between atoms: _465  and  _466
REMARK  187  A    between atoms: _465  and  _468
REMARK  188  A    between atoms: _468  and  _469
REMARK  189  A    between atoms: _472  and  _474
REMARK  190  A    between atoms: _474  and  _475
REMARK  191  A    between atoms: _474  and  _477
REMARK  192  A    between atoms: _477  and  _478
REMARK  193  A    between atoms: _483  and  _485
REMARK  194  A    between atoms: _485  and  _486
REMARK  195  A    between atoms: _485  and  _488
REMARK  196  A    between atoms: _491  and  _493
REMARK  197  A    between atoms: _493  and  _494
REMARK  198  A    between atoms: _493  and  _496
REMARK  199  A    between atoms: _496  and  _497
REMARK  200  A    between atoms: _497  and  _498
REMARK  201  A    between atoms: _503  and  _505
REMARK  202  A    between atoms: _505  and  _506
REMARK  203  A    between atoms: _510  and  _511
REMARK  204  A    between atoms: _516  and  _518
REMARK  205  A    between atoms: _518  and  _519
REMARK  206  A    between atoms: _518  and  _521
REMARK  207  A    between atoms: _521  and  _522
REMARK  208  A    between atoms: _522  and  _523
REMARK  209  A    between atoms: _526  and  _528
REMARK  210  A    between atoms: _528  and  _529
REMARK  211  A    between atoms: _528  and  _531
REMARK  212  A    between atoms: _534  and  _536
REMARK  213  A    between atoms: _536  and  _537
REMARK  214  A    between atoms: _536  and  _539
REMARK  215  A    between atoms: _539  and  _540
REMARK  216  A    between atoms: _544  and  _545
REMARK  217  A    between atoms: _550  and  _552
REMARK  218  A    between atoms: _552  and  _553
REMARK  219  A    between atoms: _552  and  _555
REMARK  220  A    between atoms: _555  and  _556
REMARK  221  A    between atoms: _559  and  _561
REMARK  222  A    between atoms: _561  and  _562
REMARK  223  A    between atoms: _565  and  _567
REMARK  224  A    between atoms: _567  and  _568
REMARK  225  A    between atoms: _567  and  _570
REMARK  226  A    between atoms: _570  and  _571
REMARK  227  A    between atoms: _574  and  _576
REMARK  228  A    between atoms: _576  and  _577
REMARK  229  A    between atoms: _576  and  _579
REMARK  230  A    between atoms: _579  and  _580
REMARK  231  A    between atoms: _582  and  _584
REMARK  232  A    between atoms: _584  and  _585
REMARK  233  A    between atoms: _587  and  _589
REMARK  234  A    between atoms: _589  and  _590
REMARK  235  A    between atoms: _589  and  _592
REMARK  236  A    between atoms: _592  and  _593
REMARK  237  A    between atoms: _596  and  _598
REMARK  238  A    between atoms: _598  and  _599
REMARK  239  A    between atoms: _598  and  _601
REMARK                            x       y       z     vdW  Elec       q    Type
REMARK                         _______ _______ _______ _____ _____    ______ ____
ROOT
ATOM      1  O   HOH     1      -8.433  -1.704   1.337  0.00  0.00    +0.000 OA
ENDROOT
TORSDOF 0
REMARK  Name = ../refined-set-2016/4xty/4xty_pocket.pdb
REMARK  239 active torsions:
REMARK  status: ('A' for Active; 'I' for Inactive)
REMARK    1  A    between atoms: _1  and  _3
REMARK    2  A    between atoms: _3  and  _4
REMARK    3  A    between atoms: _3  and  _6
REMARK    4  A    between atoms: _6  and  _7
REMARK    5  A    between atoms: _10  and  _12
REMARK    6  A    between atoms: _12  and  _13
REMARK    7  A    between atoms: _15  and  _17
REMARK    8  A    between atoms: _17  and  _18
REMARK    9  A    between atoms: _17  and  _20
REMARK   10  A    between atoms: _20  and  _21
REMARK   11  A    between atoms: _23  and  _25
REMARK   12  A    between atoms: _25  and  _26
REMARK   13  A    between atoms: _25  and  _28
REMARK   14  A    between atoms: _28  and  _29
REMARK   15  A    between atoms: _32  and  _34
REMARK   16  A    between atoms: _34  and  _35
REMARK   17  A    between atoms: _34  and  _37
REMARK   18  A    between atoms: _37  and  _38
REMARK   19  A    between atoms: _43  and  _45
REMARK   20  A    between atoms: _45  and  _46
REMARK   21  A    between atoms: _49  and  _51
REMARK   22  A    between atoms: _51  and  _52
REMARK   23  A    between atoms: _51  and  _54
REMARK   24  A    between atoms: _54  and  _55
REMARK   25  A    between atoms: _58  and  _60
REMARK   26  A    between atoms: _60  and  _61
REMARK   27  A    between atoms: _60  and  _63
REMARK   28  A    between atoms: _63  and  _64
REMARK   29  A    between atoms: _67  and  _69
REMARK   30  A    between atoms: _69  and  _70
REMARK   31  A    between atoms: _69  and  _72
REMARK   32  A    between atoms: _72  and  _73
REMARK   33  A    between atoms: _76  and  _78
REMARK   34  A    between atoms: _78  and  _79
REMARK   35  A    between atoms: _78  and  _81
REMARK   36  A    between atoms: _81  and  _82
REMARK   37  A    between atoms: _85  and  _87
REMARK   38  A    between atoms: _87  and  _88
REMARK   39  A    between atoms: _91  and  _93
REMARK   40  A    between atoms: _93  and  _94
REMARK   41  A    between atoms: _93  and  _96
REMARK   42  A    between atoms: _96  and  _97
REMARK   43  A    between atoms: _97  and  _98
REMARK   44  A    between atoms: _103  and  _105
REMARK   45  A    between atoms: _105  and  _106
REMARK   46  A    between atoms: _105  and  _108
REMARK   47  A    between atoms: _108  and  _109
REMARK   48  A    between atoms: _112  and  _114
REMARK   49  A    between atoms: _114  and  _115
REMARK   50  A    between atoms: _118  and  _120
REMARK   51  A    between atoms: _120  and  _121
REMARK   52  A    between atoms: _123  and  _125
REMARK   53  A    between atoms: _125  and  _126
REMARK   54  A    between atoms: _125  and  _128
REMARK   55  A    between atoms: _128  and  _129
REMARK   56  A    between atoms: _129  and  _130
REMARK   57  A    between atoms: _130  and  _131
REMARK   58  A    between atoms: _140  and  _142
REMARK   59  A    between atoms: _142  and  _143
REMARK   60  A    between atoms: _145  and  _147
REMARK   61  A    between atoms: _147  and  _148
REMARK   62  A    between atoms: _147  and  _150
REMARK   63  A    between atoms: _150  and  _151
REMARK   64  A    between atoms: _151  and  _152
REMARK   65  A    between atoms: _152  and  _153
REMARK   66  A    between atoms: _162  and  _164
REMARK   67  A    between atoms: _164  and  _165
REMARK   68  A    between atoms: _164  and  _167
REMARK   69  A    between atoms: _167  and  _168
REMARK   70  A    between atoms: _173  and  _175
REMARK   71  A    between atoms: _175  and  _176
REMARK   72  A    between atoms: _178  and  _180
REMARK   73  A    between atoms: _180  and  _181
REMARK   74  A    between atoms: _180  and  _183
REMARK   75  A    between atoms: _183  and  _184
REMARK   76  A    between atoms: _184  and  _185
REMARK   77  A    between atoms: _185  and  _186
REMARK   78  A    between atoms: _195  and  _197
REMARK   79  A    between atoms: _197  and  _198
REMARK   80  A    between atoms: _200  and  _202
REMARK   81  A    between atoms: _202  and  _203
REMARK   82  A    between atoms: _202  and  _205
REMARK   83  A    between atoms: _205  and  _206
REMARK   84  A    between atoms: _216  and  _218
REMARK   85  A    between atoms: _218  and  _219
REMARK   86  A    between atoms: _222  and  _224
REMARK   87  A    between atoms: _224  and  _225
REMARK   88  A    between atoms: _228  and  _230
REMARK   89  A    between atoms: _230  and  _231
REMARK   90  A    between atoms: _230  and  _233
REMARK   91  A    between atoms: _233  and  _234
REMARK   92  A    between atoms: _237  and  _239
REMARK   93  A    between atoms: _239  and  _240
REMARK   94  A    between atoms: _239  and  _242
REMARK   95  A    between atoms: _242  and  _243
REMARK   96  A    between atoms: _243  and  _244
REMARK   97  A    between atoms: _249  and  _251
REMARK   98  A    between atoms: _251  and  _252
REMARK   99  A    between atoms: _251  and  _254
REMARK  100  A    between atoms: _254  and  _255
REMARK  101  A    between atoms: _258  and  _260
REMARK  102  A    between atoms: _260  and  _261
REMARK  103  A    between atoms: _260  and  _263
REMARK  104  A    between atoms: _263  and  _264
REMARK  105  A    between atoms: _267  and  _269
REMARK  106  A    between atoms: _269  and  _270
REMARK  107  A    between atoms: _269  and  _272
REMARK  108  A    between atoms: _272  and  _273
REMARK  109  A    between atoms: _276  and  _278
REMARK  110  A    between atoms: _278  and  _279
REMARK  111  A    between atoms: _278  and  _281
REMARK  112  A    between atoms: _281  and  _282
REMARK  113  A    between atoms: _284  and  _286
REMARK  114  A    between atoms: _286  and  _287
REMARK  115  A    between atoms: _286  and  _289
REMARK  116  A    between atoms: _292  and  _294
REMARK  117  A    between atoms: _294  and  _295
REMARK  118  A    between atoms: _294  and  _297
REMARK  119  A    between atoms: _297  and  _298
REMARK  120  A    between atoms: _298  and  _299
REMARK  121  A    between atoms: _299  and  _300
REMARK  122  A    between atoms: _300  and  _301
REMARK  123  A    between atoms: _305  and  _307
REMARK  124  A    between atoms: _307  and  _308
REMARK  125  A    between atoms: _307  and  _310
REMARK  126  A    between atoms: _310  and  _311
REMARK  127  A    between atoms: _322  and  _323
REMARK  128  A    between atoms: _328  and  _330
REMARK  129  A    between atoms: _330  and  _331
REMARK  130  A    between atoms: _330  and  _333
REMARK  131  A    between atoms: _333  and  _334
REMARK  132  A    between atoms: _339  and  _341
REMARK  133  A    between atoms: _341  and  _342
REMARK  134  A    between atoms: _341  and  _344
REMARK  135  A    between atoms: _344  and  _345
REMARK  136  A    between atoms: _348  and  _350
REMARK  137  A    between atoms: _350  and  _351
REMARK  138  A    between atoms: _350  and  _353
REMARK  139  A    between atoms: _356  and  _358
REMARK  140  A    between atoms: _358  and  _359
REMARK  141  A    between atoms: _361  and  _363
REMARK  142  A    between atoms: _363  and  _364
REMARK  143  A    between atoms: _363  and  _366
REMARK  144  A    between atoms: _366  and  _367
REMARK  145  A    between atoms: _367  and  _368
REMARK  146  A    between atoms: _368  and  _369
REMARK  147  A    between atoms: _369  and  _370
REMARK  148  A    between atoms: _374  and  _376
REMARK  149  A    between atoms: _376  and  _377
REMARK  150  A    between atoms: _376  and  _379
REMARK  151  A    between atoms: _379  and  _380
REMARK  152  A    between atoms: _383  and  _385
REMARK  153  A    between atoms: _385  and  _386
REMARK  154  A    between atoms: _389  and  _391
REMARK  155  A    between atoms: _391  and  _392
REMARK  156  A    between atoms: _394  and  _396
REMARK  157  A    between atoms: _396  and  _397
REMARK  158  A    between atoms: _396  and  _399
REMARK  159  A    between atoms: _399  and  _400
REMARK  160  A    between atoms: _403  and  _405
REMARK  161  A    between atoms: _405  and  _406
REMARK  162  A    between atoms: _405  and  _408
REMARK  163  A    between atoms: _408  and  _409
REMARK  164  A    between atoms: _412  and  _414
REMARK  165  A    between atoms: _414  and  _415
REMARK  166  A    between atoms: _418  and  _420
REMARK  167  A    between atoms: _420  and  _421
REMARK  168  A    between atoms: _420  and  _423
REMARK  169  A    between atoms: _423  and  _424
REMARK  170  A    between atoms: _424  and  _425
REMARK  171  A    between atoms: _428  and  _430
REMARK  172  A    between atoms: _430  and  _431
REMARK  173  A    between atoms: _430  and  _433
REMARK  174  A    between atoms: _436  and  _438
REMARK  175  A    between atoms: _438  and  _439
REMARK  176  A    between atoms: _438  and  _441
REMARK  177  A    between atoms: _441  and  _442
REMARK  178  A    between atoms: _445  and  _447
REMARK  179  A    between atoms: _447  and  _448
REMARK  180  A    between atoms: _450  and  _452
REMARK  181  A    between atoms: _452  and  _453
REMARK  182  A    between atoms: _452  and  _455
REMARK  183  A    between atoms: _458  and  _460
REMARK  184  A    between atoms: _460  and  _461
REMARK  185  A    between atoms: _463  and  _465
REMARK  186  A    between atoms: _465  and  _466
REMARK  187  A    between atoms: _465  and  _468
REMARK  188  A    between atoms: _468  and  _469
REMARK  189  A    between atoms: _472  and  _474
REMARK  190  A    between atoms: _474  and  _475
REMARK  191  A    between atoms: _474  and  _477
REMARK  192  A    between atoms: _477  and  _478
REMARK  193  A    between atoms: _483  and  _485
REMARK  194  A    between atoms: _485  and  _486
REMARK  195  A    between atoms: _485  and  _488
REMARK  196  A    between atoms: _491  and  _493
REMARK  197  A    between atoms: _493  and  _494
REMARK  198  A    between atoms: _493  and  _496
REMARK  199  A    between atoms: _496  and  _497
REMARK  200  A    between atoms: _497  and  _498
REMARK  201  A    between atoms: _503  and  _505
REMARK  202  A    between atoms: _505  and  _506
REMARK  203  A    between atoms: _510  and  _511
REMARK  204  A    between atoms: _516  and  _518
REMARK  205  A    between atoms: _518  and  _519
REMARK  206  A    between atoms: _518  and  _521
REMARK  207  A    between atoms: _521  and  _522
REMARK  208  A    between atoms: _522  and  _523
REMARK  209  A    between atoms: _526  and  _528
REMARK  210  A    between atoms: _528  and  _529
REMARK  211  A    between atoms: _528  and  _531
REMARK  212  A    between atoms: _534  and  _536
REMARK  213  A    between atoms: _536  and  _537
REMARK  214  A    between atoms: _536  and  _539
REMARK  215  A    between atoms: _539  and  _540
REMARK  216  A    between atoms: _544  and  _545
REMARK  217  A    between atoms: _550  and  _552
REMARK  218  A    between atoms: _552  and  _553
REMARK  219  A    between atoms: _552  and  _555
REMARK  220  A    between atoms: _555  and  _556
REMARK  221  A    between atoms: _559  and  _561
REMARK  222  A    between atoms: _561  and  _562
REMARK  223  A    between atoms: _565  and  _567
REMARK  224  A    between atoms: _567  and  _568
REMARK  225  A    between atoms: _567  and  _570
REMARK  226  A    between atoms: _570  and  _571
REMARK  227  A    between atoms: _574  and  _576
REMARK  228  A    between atoms: _576  and  _577
REMARK  229  A    between atoms: _576  and  _579
REMARK  230  A    between atoms: _579  and  _580
REMARK  231  A    between atoms: _582  and  _584
REMARK  232  A    between atoms: _584  and  _585
REMARK  233  A    between atoms: _587  and  _589
REMARK  234  A    between atoms: _589  and  _590
REMARK  235  A    between atoms: _589  and  _592
REMARK  236  A    between atoms: _592  and  _593
REMARK  237  A    between atoms: _596  and  _598
REMARK  238  A    between atoms: _598  and  _599
REMARK  239  A    between atoms: _598  and  _601
REMARK                            x       y       z     vdW  Elec       q    Type
REMARK                         _______ _______ _______ _____ _____    ______ ____
ROOT
ATOM      1  O   HOH     1      -1.842   1.327   5.351  0.00  0.00    +0.000 OA
ENDROOT
TORSDOF 0
REMARK  Name = ../refined-set-2016/4xty/4xty_pocket.pdb
REMARK  239 active torsions:
REMARK  status: ('A' for Active; 'I' for Inactive)
REMARK    1  A    between atoms: _1  and  _3
REMARK    2  A    between atoms: _3  and  _4
REMARK    3  A    between atoms: _3  and  _6
REMARK    4  A    between atoms: _6  and  _7
REMARK    5  A    between atoms: _10  and  _12
REMARK    6  A    between atoms: _12  and  _13
REMARK    7  A    between atoms: _15  and  _17
REMARK    8  A    between atoms: _17  and  _18
REMARK    9  A    between atoms: _17  and  _20
REMARK   10  A    between atoms: _20  and  _21
REMARK   11  A    between atoms: _23  and  _25
REMARK   12  A    between atoms: _25  and  _26
REMARK   13  A    between atoms: _25  and  _28
REMARK   14  A    between atoms: _28  and  _29
REMARK   15  A    between atoms: _32  and  _34
REMARK   16  A    between atoms: _34  and  _35
REMARK   17  A    between atoms: _34  and  _37
REMARK   18  A    between atoms: _37  and  _38
REMARK   19  A    between atoms: _43  and  _45
REMARK   20  A    between atoms: _45  and  _46
REMARK   21  A    between atoms: _49  and  _51
REMARK   22  A    between atoms: _51  and  _52
REMARK   23  A    between atoms: _51  and  _54
REMARK   24  A    between atoms: _54  and  _55
REMARK   25  A    between atoms: _58  and  _60
REMARK   26  A    between atoms: _60  and  _61
REMARK   27  A    between atoms: _60  and  _63
REMARK   28  A    between atoms: _63  and  _64
REMARK   29  A    between atoms: _67  and  _69
REMARK   30  A    between atoms: _69  and  _70
REMARK   31  A    between atoms: _69  and  _72
REMARK   32  A    between atoms: _72  and  _73
REMARK   33  A    between atoms: _76  and  _78
REMARK   34  A    between atoms: _78  and  _79
REMARK   35  A    between atoms: _78  and  _81
REMARK   36  A    between atoms: _81  and  _82
REMARK   37  A    between atoms: _85  and  _87
REMARK   38  A    between atoms: _87  and  _88
REMARK   39  A    between atoms: _91  and  _93
REMARK   40  A    between atoms: _93  and  _94
REMARK   41  A    between atoms: _93  and  _96
REMARK   42  A    between atoms: _96  and  _97
REMARK   43  A    between atoms: _97  and  _98
REMARK   44  A    between atoms: _103  and  _105
REMARK   45  A    between atoms: _105  and  _106
REMARK   46  A    between atoms: _105  and  _108
REMARK   47  A    between atoms: _108  and  _109
REMARK   48  A    between atoms: _112  and  _114
REMARK   49  A    between atoms: _114  and  _115
REMARK   50  A    between atoms: _118  and  _120
REMARK   51  A    between atoms: _120  and  _121
REMARK   52  A    between atoms: _123  and  _125
REMARK   53  A    between atoms: _125  and  _126
REMARK   54  A    between atoms: _125  and  _128
REMARK   55  A    between atoms: _128  and  _129
REMARK   56  A    between atoms: _129  and  _130
REMARK   57  A    between atoms: _130  and  _131
REMARK   58  A    between atoms: _140  and  _142
REMARK   59  A    between atoms: _142  and  _143
REMARK   60  A    between atoms: _145  and  _147
REMARK   61  A    between atoms: _147  and  _148
REMARK   62  A    between atoms: _147  and  _150
REMARK   63  A    between atoms: _150  and  _151
REMARK   64  A    between atoms: _151  and  _152
REMARK   65  A    between atoms: _152  and  _153
REMARK   66  A    between atoms: _162  and  _164
REMARK   67  A    between atoms: _164  and  _165
REMARK   68  A    between atoms: _164  and  _167
REMARK   69  A    between atoms: _167  and  _168
REMARK   70  A    between atoms: _173  and  _175
REMARK   71  A    between atoms: _175  and  _176
REMARK   72  A    between atoms: _178  and  _180
REMARK   73  A    between atoms: _180  and  _181
REMARK   74  A    between atoms: _180  and  _183
REMARK   75  A    between atoms: _183  and  _184
REMARK   76  A    between atoms: _184  and  _185
REMARK   77  A    between atoms: _185  and  _186
REMARK   78  A    between atoms: _195  and  _197
REMARK   79  A    between atoms: _197  and  _198
REMARK   80  A    between atoms: _200  and  _202
REMARK   81  A    between atoms: _202  and  _203
REMARK   82  A    between atoms: _202  and  _205
REMARK   83  A    between atoms: _205  and  _206
REMARK   84  A    between atoms: _216  and  _218
REMARK   85  A    between atoms: _218  and  _219
REMARK   86  A    between atoms: _222  and  _224
REMARK   87  A    between atoms: _224  and  _225
REMARK   88  A    between atoms: _228  and  _230
REMARK   89  A    between atoms: _230  and  _231
REMARK   90  A    between atoms: _230  and  _233
REMARK   91  A    between atoms: _233  and  _234
REMARK   92  A    between atoms: _237  and  _239
REMARK   93  A    between atoms: _239  and  _240
REMARK   94  A    between atoms: _239  and  _242
REMARK   95  A    between atoms: _242  and  _243
REMARK   96  A    between atoms: _243  and  _244
REMARK   97  A    between atoms: _249  and  _251
REMARK   98  A    between atoms: _251  and  _252
REMARK   99  A    between atoms: _251  and  _254
REMARK  100  A    between atoms: _254  and  _255
REMARK  101  A    between atoms: _258  and  _260
REMARK  102  A    between atoms: _260  and  _261
REMARK  103  A    between atoms: _260  and  _263
REMARK  104  A    between atoms: _263  and  _264
REMARK  105  A    between atoms: _267  and  _269
REMARK  106  A    between atoms: _269  and  _270
REMARK  107  A    between atoms: _269  and  _272
REMARK  108  A    between atoms: _272  and  _273
REMARK  109  A    between atoms: _276  and  _278
REMARK  110  A    between atoms: _278  and  _279
REMARK  111  A    between atoms: _278  and  _281
REMARK  112  A    between atoms: _281  and  _282
REMARK  113  A    between atoms: _284  and  _286
REMARK  114  A    between atoms: _286  and  _287
REMARK  115  A    between atoms: _286  and  _289
REMARK  116  A    between atoms: _292  and  _294
REMARK  117  A    between atoms: _294  and  _295
REMARK  118  A    between atoms: _294  and  _297
REMARK  119  A    between atoms: _297  and  _298
REMARK  120  A    between atoms: _298  and  _299
REMARK  121  A    between atoms: _299  and  _300
REMARK  122  A    between atoms: _300  and  _301
REMARK  123  A    between atoms: _305  and  _307
REMARK  124  A    between atoms: _307  and  _308
REMARK  125  A    between atoms: _307  and  _310
REMARK  126  A    between atoms: _310  and  _311
REMARK  127  A    between atoms: _322  and  _323
REMARK  128  A    between atoms: _328  and  _330
REMARK  129  A    between atoms: _330  and  _331
REMARK  130  A    between atoms: _330  and  _333
REMARK  131  A    between atoms: _333  and  _334
REMARK  132  A    between atoms: _339  and  _341
REMARK  133  A    between atoms: _341  and  _342
REMARK  134  A    between atoms: _341  and  _344
REMARK  135  A    between atoms: _344  and  _345
REMARK  136  A    between atoms: _348  and  _350
REMARK  137  A    between atoms: _350  and  _351
REMARK  138  A    between atoms: _350  and  _353
REMARK  139  A    between atoms: _356  and  _358
REMARK  140  A    between atoms: _358  and  _359
REMARK  141  A    between atoms: _361  and  _363
REMARK  142  A    between atoms: _363  and  _364
REMARK  143  A    between atoms: _363  and  _366
REMARK  144  A    between atoms: _366  and  _367
REMARK  145  A    between atoms: _367  and  _368
REMARK  146  A    between atoms: _368  and  _369
REMARK  147  A    between atoms: _369  and  _370
REMARK  148  A    between atoms: _374  and  _376
REMARK  149  A    between atoms: _376  and  _377
REMARK  150  A    between atoms: _376  and  _379
REMARK  151  A    between atoms: _379  and  _380
REMARK  152  A    between atoms: _383  and  _385
REMARK  153  A    between atoms: _385  and  _386
REMARK  154  A    between atoms: _389  and  _391
REMARK  155  A    between atoms: _391  and  _392
REMARK  156  A    between atoms: _394  and  _396
REMARK  157  A    between atoms: _396  and  _397
REMARK  158  A    between atoms: _396  and  _399
REMARK  159  A    between atoms: _399  and  _400
REMARK  160  A    between atoms: _403  and  _405
REMARK  161  A    between atoms: _405  and  _406
REMARK  162  A    between atoms: _405  and  _408
REMARK  163  A    between atoms: _408  and  _409
REMARK  164  A    between atoms: _412  and  _414
REMARK  165  A    between atoms: _414  and  _415
REMARK  166  A    between atoms: _418  and  _420
REMARK  167  A    between atoms: _420  and  _421
REMARK  168  A    between atoms: _420  and  _423
REMARK  169  A    between atoms: _423  and  _424
REMARK  170  A    between atoms: _424  and  _425
REMARK  171  A    between atoms: _428  and  _430
REMARK  172  A    between atoms: _430  and  _431
REMARK  173  A    between atoms: _430  and  _433
REMARK  174  A    between atoms: _436  and  _438
REMARK  175  A    between atoms: _438  and  _439
REMARK  176  A    between atoms: _438  and  _441
REMARK  177  A    between atoms: _441  and  _442
REMARK  178  A    between atoms: _445  and  _447
REMARK  179  A    between atoms: _447  and  _448
REMARK  180  A    between atoms: _450  and  _452
REMARK  181  A    between atoms: _452  and  _453
REMARK  182  A    between atoms: _452  and  _455
REMARK  183  A    between atoms: _458  and  _460
REMARK  184  A    between atoms: _460  and  _461
REMARK  185  A    between atoms: _463  and  _465
REMARK  186  A    between atoms: _465  and  _466
REMARK  187  A    between atoms: _465  and  _468
REMARK  188  A    between atoms: _468  and  _469
REMARK  189  A    between atoms: _472  and  _474
REMARK  190  A    between atoms: _474  and  _475
REMARK  191  A    between atoms: _474  and  _477
REMARK  192  A    between atoms: _477  and  _478
REMARK  193  A    between atoms: _483  and  _485
REMARK  194  A    between atoms: _485  and  _486
REMARK  195  A    between atoms: _485  and  _488
REMARK  196  A    between atoms: _491  and  _493
REMARK  197  A    between atoms: _493  and  _494
REMARK  198  A    between atoms: _493  and  _496
REMARK  199  A    between atoms: _496  and  _497
REMARK  200  A    between atoms: _497  and  _498
REMARK  201  A    between atoms: _503  and  _505
REMARK  202  A    between atoms: _505  and  _506
REMARK  203  A    between atoms: _510  and  _511
REMARK  204  A    between atoms: _516  and  _518
REMARK  205  A    between atoms: _518  and  _519
REMARK  206  A    between atoms: _518  and  _521
REMARK  207  A    between atoms: _521  and  _522
REMARK  208  A    between atoms: _522  and  _523
REMARK  209  A    between atoms: _526  and  _528
REMARK  210  A    between atoms: _528  and  _529
REMARK  211  A    between atoms: _528  and  _531
REMARK  212  A    between atoms: _534  and  _536
REMARK  213  A    between atoms: _536  and  _537
REMARK  214  A    between atoms: _536  and  _539
REMARK  215  A    between atoms: _539  and  _540
REMARK  216  A    between atoms: _544  and  _545
REMARK  217  A    between atoms: _550  and  _552
REMARK  218  A    between atoms: _552  and  _553
REMARK  219  A    between atoms: _552  and  _555
REMARK  220  A    between atoms: _555  and  _556
REMARK  221  A    between atoms: _559  and  _561
REMARK  222  A    between atoms: _561  and  _562
REMARK  223  A    between atoms: _565  and  _567
REMARK  224  A    between atoms: _567  and  _568
REMARK  225  A    between atoms: _567  and  _570
REMARK  226  A    between atoms: _570  and  _571
REMARK  227  A    between atoms: _574  and  _576
REMARK  228  A    between atoms: _576  and  _577
REMARK  229  A    between atoms: _576  and  _579
REMARK  230  A    between atoms: _579  and  _580
REMARK  231  A    between atoms: _582  and  _584
REMARK  232  A    between atoms: _584  and  _585
REMARK  233  A    between atoms: _587  and  _589
REMARK  234  A    between atoms: _589  and  _590
REMARK  235  A    between atoms: _589  and  _592
REMARK  236  A    between atoms: _592  and  _593
REMARK  237  A    between atoms: _596  and  _598
REMARK  238  A    between atoms: _598  and  _599
REMARK  239  A    between atoms: _598  and  _601
REMARK                            x       y       z     vdW  Elec       q    Type
REMARK                         _______ _______ _______ _____ _____    ______ ____
ROOT
ATOM      1  O   HOH     1       6.826  -7.160  14.685  0.00  0.00    +0.000 OA
ENDROOT
TORSDOF 0
REMARK  Name = ../refined-set-2016/4xty/4xty_pocket.pdb
REMARK  239 active torsions:
REMARK  status: ('A' for Active; 'I' for Inactive)
REMARK    1  A    between atoms: _1  and  _3
REMARK    2  A    between atoms: _3  and  _4
REMARK    3  A    between atoms: _3  and  _6
REMARK    4  A    between atoms: _6  and  _7
REMARK    5  A    between atoms: _10  and  _12
REMARK    6  A    between atoms: _12  and  _13
REMARK    7  A    between atoms: _15  and  _17
REMARK    8  A    between atoms: _17  and  _18
REMARK    9  A    between atoms: _17  and  _20
REMARK   10  A    between atoms: _20  and  _21
REMARK   11  A    between atoms: _23  and  _25
REMARK   12  A    between atoms: _25  and  _26
REMARK   13  A    between atoms: _25  and  _28
REMARK   14  A    between atoms: _28  and  _29
REMARK   15  A    between atoms: _32  and  _34
REMARK   16  A    between atoms: _34  and  _35
REMARK   17  A    between atoms: _34  and  _37
REMARK   18  A    between atoms: _37  and  _38
REMARK   19  A    between atoms: _43  and  _45
REMARK   20  A    between atoms: _45  and  _46
REMARK   21  A    between atoms: _49  and  _51
REMARK   22  A    between atoms: _51  and  _52
REMARK   23  A    between atoms: _51  and  _54
REMARK   24  A    between atoms: _54  and  _55
REMARK   25  A    between atoms: _58  and  _60
REMARK   26  A    between atoms: _60  and  _61
REMARK   27  A    between atoms: _60  and  _63
REMARK   28  A    between atoms: _63  and  _64
REMARK   29  A    between atoms: _67  and  _69
REMARK   30  A    between atoms: _69  and  _70
REMARK   31  A    between atoms: _69  and  _72
REMARK   32  A    between atoms: _72  and  _73
REMARK   33  A    between atoms: _76  and  _78
REMARK   34  A    between atoms: _78  and  _79
REMARK   35  A    between atoms: _78  and  _81
REMARK   36  A    between atoms: _81  and  _82
REMARK   37  A    between atoms: _85  and  _87
REMARK   38  A    between atoms: _87  and  _88
REMARK   39  A    between atoms: _91  and  _93
REMARK   40  A    between atoms: _93  and  _94
REMARK   41  A    between atoms: _93  and  _96
REMARK   42  A    between atoms: _96  and  _97
REMARK   43  A    between atoms: _97  and  _98
REMARK   44  A    between atoms: _103  and  _105
REMARK   45  A    between atoms: _105  and  _106
REMARK   46  A    between atoms: _105  and  _108
REMARK   47  A    between atoms: _108  and  _109
REMARK   48  A    between atoms: _112  and  _114
REMARK   49  A    between atoms: _114  and  _115
REMARK   50  A    between atoms: _118  and  _120
REMARK   51  A    between atoms: _120  and  _121
REMARK   52  A    between atoms: _123  and  _125
REMARK   53  A    between atoms: _125  and  _126
REMARK   54  A    between atoms: _125  and  _128
REMARK   55  A    between atoms: _128  and  _129
REMARK   56  A    between atoms: _129  and  _130
REMARK   57  A    between atoms: _130  and  _131
REMARK   58  A    between atoms: _140  and  _142
REMARK   59  A    between atoms: _142  and  _143
REMARK   60  A    between atoms: _145  and  _147
REMARK   61  A    between atoms: _147  and  _148
REMARK   62  A    between atoms: _147  and  _150
REMARK   63  A    between atoms: _150  and  _151
REMARK   64  A    between atoms: _151  and  _152
REMARK   65  A    between atoms: _152  and  _153
REMARK   66  A    between atoms: _162  and  _164
REMARK   67  A    between atoms: _164  and  _165
REMARK   68  A    between atoms: _164  and  _167
REMARK   69  A    between atoms: _167  and  _168
REMARK   70  A    between atoms: _173  and  _175
REMARK   71  A    between atoms: _175  and  _176
REMARK   72  A    between atoms: _178  and  _180
REMARK   73  A    between atoms: _180  and  _181
REMARK   74  A    between atoms: _180  and  _183
REMARK   75  A    between atoms: _183  and  _184
REMARK   76  A    between atoms: _184  and  _185
REMARK   77  A    between atoms: _185  and  _186
REMARK   78  A    between atoms: _195  and  _197
REMARK   79  A    between atoms: _197  and  _198
REMARK   80  A    between atoms: _200  and  _202
REMARK   81  A    between atoms: _202  and  _203
REMARK   82  A    between atoms: _202  and  _205
REMARK   83  A    between atoms: _205  and  _206
REMARK   84  A    between atoms: _216  and  _218
REMARK   85  A    between atoms: _218  and  _219
REMARK   86  A    between atoms: _222  and  _224
REMARK   87  A    between atoms: _224  and  _225
REMARK   88  A    between atoms: _228  and  _230
REMARK   89  A    between atoms: _230  and  _231
REMARK   90  A    between atoms: _230  and  _233
REMARK   91  A    between atoms: _233  and  _234
REMARK   92  A    between atoms: _237  and  _239
REMARK   93  A    between atoms: _239  and  _240
REMARK   94  A    between atoms: _239  and  _242
REMARK   95  A    between atoms: _242  and  _243
REMARK   96  A    between atoms: _243  and  _244
REMARK   97  A    between atoms: _249  and  _251
REMARK   98  A    between atoms: _251  and  _252
REMARK   99  A    between atoms: _251  and  _254
REMARK  100  A    between atoms: _254  and  _255
REMARK  101  A    between atoms: _258  and  _260
REMARK  102  A    between atoms: _260  and  _261
REMARK  103  A    between atoms: _260  and  _263
REMARK  104  A    between atoms: _263  and  _264
REMARK  105  A    between atoms: _267  and  _269
REMARK  106  A    between atoms: _269  and  _270
REMARK  107  A    between atoms: _269  and  _272
REMARK  108  A    between atoms: _272  and  _273
REMARK  109  A    between atoms: _276  and  _278
REMARK  110  A    between atoms: _278  and  _279
REMARK  111  A    between atoms: _278  and  _281
REMARK  112  A    between atoms: _281  and  _282
REMARK  113  A    between atoms: _284  and  _286
REMARK  114  A    between atoms: _286  and  _287
REMARK  115  A    between atoms: _286  and  _289
REMARK  116  A    between atoms: _292  and  _294
REMARK  117  A    between atoms: _294  and  _295
REMARK  118  A    between atoms: _294  and  _297
REMARK  119  A    between atoms: _297  and  _298
REMARK  120  A    between atoms: _298  and  _299
REMARK  121  A    between atoms: _299  and  _300
REMARK  122  A    between atoms: _300  and  _301
REMARK  123  A    between atoms: _305  and  _307
REMARK  124  A    between atoms: _307  and  _308
REMARK  125  A    between atoms: _307  and  _310
REMARK  126  A    between atoms: _310  and  _311
REMARK  127  A    between atoms: _322  and  _323
REMARK  128  A    between atoms: _328  and  _330
REMARK  129  A    between atoms: _330  and  _331
REMARK  130  A    between atoms: _330  and  _333
REMARK  131  A    between atoms: _333  and  _334
REMARK  132  A    between atoms: _339  and  _341
REMARK  133  A    between atoms: _341  and  _342
REMARK  134  A    between atoms: _341  and  _344
REMARK  135  A    between atoms: _344  and  _345
REMARK  136  A    between atoms: _348  and  _350
REMARK  137  A    between atoms: _350  and  _351
REMARK  138  A    between atoms: _350  and  _353
REMARK  139  A    between atoms: _356  and  _358
REMARK  140  A    between atoms: _358  and  _359
REMARK  141  A    between atoms: _361  and  _363
REMARK  142  A    between atoms: _363  and  _364
REMARK  143  A    between atoms: _363  and  _366
REMARK  144  A    between atoms: _366  and  _367
REMARK  145  A    between atoms: _367  and  _368
REMARK  146  A    between atoms: _368  and  _369
REMARK  147  A    between atoms: _369  and  _370
REMARK  148  A    between atoms: _374  and  _376
REMARK  149  A    between atoms: _376  and  _377
REMARK  150  A    between atoms: _376  and  _379
REMARK  151  A    between atoms: _379  and  _380
REMARK  152  A    between atoms: _383  and  _385
REMARK  153  A    between atoms: _385  and  _386
REMARK  154  A    between atoms: _389  and  _391
REMARK  155  A    between atoms: _391  and  _392
REMARK  156  A    between atoms: _394  and  _396
REMARK  157  A    between atoms: _396  and  _397
REMARK  158  A    between atoms: _396  and  _399
REMARK  159  A    between atoms: _399  and  _400
REMARK  160  A    between atoms: _403  and  _405
REMARK  161  A    between atoms: _405  and  _406
REMARK  162  A    between atoms: _405  and  _408
REMARK  163  A    between atoms: _408  and  _409
REMARK  164  A    between atoms: _412  and  _414
REMARK  165  A    between atoms: _414  and  _415
REMARK  166  A    between atoms: _418  and  _420
REMARK  167  A    between atoms: _420  and  _421
REMARK  168  A    between atoms: _420  and  _423
REMARK  169  A    between atoms: _423  and  _424
REMARK  170  A    between atoms: _424  and  _425
REMARK  171  A    between atoms: _428  and  _430
REMARK  172  A    between atoms: _430  and  _431
REMARK  173  A    between atoms: _430  and  _433
REMARK  174  A    between atoms: _436  and  _438
REMARK  175  A    between atoms: _438  and  _439
REMARK  176  A    between atoms: _438  and  _441
REMARK  177  A    between atoms: _441  and  _442
REMARK  178  A    between atoms: _445  and  _447
REMARK  179  A    between atoms: _447  and  _448
REMARK  180  A    between atoms: _450  and  _452
REMARK  181  A    between atoms: _452  and  _453
REMARK  182  A    between atoms: _452  and  _455
REMARK  183  A    between atoms: _458  and  _460
REMARK  184  A    between atoms: _460  and  _461
REMARK  185  A    between atoms: _463  and  _465
REMARK  186  A    between atoms: _465  and  _466
REMARK  187  A    between atoms: _465  and  _468
REMARK  188  A    between atoms: _468  and  _469
REMARK  189  A    between atoms: _472  and  _474
REMARK  190  A    between atoms: _474  and  _475
REMARK  191  A    between atoms: _474  and  _477
REMARK  192  A    between atoms: _477  and  _478
REMARK  193  A    between atoms: _483  and  _485
REMARK  194  A    between atoms: _485  and  _486
REMARK  195  A    between atoms: _485  and  _488
REMARK  196  A    between atoms: _491  and  _493
REMARK  197  A    between atoms: _493  and  _494
REMARK  198  A    between atoms: _493  and  _496
REMARK  199  A    between atoms: _496  and  _497
REMARK  200  A    between atoms: _497  and  _498
REMARK  201  A    between atoms: _503  and  _505
REMARK  202  A    between atoms: _505  and  _506
REMARK  203  A    between atoms: _510  and  _511
REMARK  204  A    between atoms: _516  and  _518
REMARK  205  A    between atoms: _518  and  _519
REMARK  206  A    between atoms: _518  and  _521
REMARK  207  A    between atoms: _521  and  _522
REMARK  208  A    between atoms: _522  and  _523
REMARK  209  A    between atoms: _526  and  _528
REMARK  210  A    between atoms: _528  and  _529
REMARK  211  A    between atoms: _528  and  _531
REMARK  212  A    between atoms: _534  and  _536
REMARK  213  A    between atoms: _536  and  _537
REMARK  214  A    between atoms: _536  and  _539
REMARK  215  A    between atoms: _539  and  _540
REMARK  216  A    between atoms: _544  and  _545
REMARK  217  A    between atoms: _550  and  _552
REMARK  218  A    between atoms: _552  and  _553
REMARK  219  A    between atoms: _552  and  _555
REMARK  220  A    between atoms: _555  and  _556
REMARK  221  A    between atoms: _559  and  _561
REMARK  222  A    between atoms: _561  and  _562
REMARK  223  A    between atoms: _565  and  _567
REMARK  224  A    between atoms: _567  and  _568
REMARK  225  A    between atoms: _567  and  _570
REMARK  226  A    between atoms: _570  and  _571
REMARK  227  A    between atoms: _574  and  _576
REMARK  228  A    between atoms: _576  and  _577
REMARK  229  A    between atoms: _576  and  _579
REMARK  230  A    between atoms: _579  and  _580
REMARK  231  A    between atoms: _582  and  _584
REMARK  232  A    between atoms: _584  and  _585
REMARK  233  A    between atoms: _587  and  _589
REMARK  234  A    between atoms: _589  and  _590
REMARK  235  A    between atoms: _589  and  _592
REMARK  236  A    between atoms: _592  and  _593
REMARK  237  A    between atoms: _596  and  _598
REMARK  238  A    between atoms: _598  and  _599
REMARK  239  A    between atoms: _598  and  _601
REMARK                            x       y       z     vdW  Elec       q    Type
REMARK                         _______ _______ _______ _____ _____    ______ ____
ROOT
ATOM      1  O   HOH     1       1.144 -10.448   3.879  0.00  0.00    +0.000 OA
ENDROOT
TORSDOF 0
REMARK  Name = ../refined-set-2016/4xty/4xty_pocket.pdb
REMARK  239 active torsions:
REMARK  status: ('A' for Active; 'I' for Inactive)
REMARK    1  A    between atoms: _1  and  _3
REMARK    2  A    between atoms: _3  and  _4
REMARK    3  A    between atoms: _3  and  _6
REMARK    4  A    between atoms: _6  and  _7
REMARK    5  A    between atoms: _10  and  _12
REMARK    6  A    between atoms: _12  and  _13
REMARK    7  A    between atoms: _15  and  _17
REMARK    8  A    between atoms: _17  and  _18
REMARK    9  A    between atoms: _17  and  _20
REMARK   10  A    between atoms: _20  and  _21
REMARK   11  A    between atoms: _23  and  _25
REMARK   12  A    between atoms: _25  and  _26
REMARK   13  A    between atoms: _25  and  _28
REMARK   14  A    between atoms: _28  and  _29
REMARK   15  A    between atoms: _32  and  _34
REMARK   16  A    between atoms: _34  and  _35
REMARK   17  A    between atoms: _34  and  _37
REMARK   18  A    between atoms: _37  and  _38
REMARK   19  A    between atoms: _43  and  _45
REMARK   20  A    between atoms: _45  and  _46
REMARK   21  A    between atoms: _49  and  _51
REMARK   22  A    between atoms: _51  and  _52
REMARK   23  A    between atoms: _51  and  _54
REMARK   24  A    between atoms: _54  and  _55
REMARK   25  A    between atoms: _58  and  _60
REMARK   26  A    between atoms: _60  and  _61
REMARK   27  A    between atoms: _60  and  _63
REMARK   28  A    between atoms: _63  and  _64
REMARK   29  A    between atoms: _67  and  _69
REMARK   30  A    between atoms: _69  and  _70
REMARK   31  A    between atoms: _69  and  _72
REMARK   32  A    between atoms: _72  and  _73
REMARK   33  A    between atoms: _76  and  _78
REMARK   34  A    between atoms: _78  and  _79
REMARK   35  A    between atoms: _78  and  _81
REMARK   36  A    between atoms: _81  and  _82
REMARK   37  A    between atoms: _85  and  _87
REMARK   38  A    between atoms: _87  and  _88
REMARK   39  A    between atoms: _91  and  _93
REMARK   40  A    between atoms: _93  and  _94
REMARK   41  A    between atoms: _93  and  _96
REMARK   42  A    between atoms: _96  and  _97
REMARK   43  A    between atoms: _97  and  _98
REMARK   44  A    between atoms: _103  and  _105
REMARK   45  A    between atoms: _105  and  _106
REMARK   46  A    between atoms: _105  and  _108
REMARK   47  A    between atoms: _108  and  _109
REMARK   48  A    between atoms: _112  and  _114
REMARK   49  A    between atoms: _114  and  _115
REMARK   50  A    between atoms: _118  and  _120
REMARK   51  A    between atoms: _120  and  _121
REMARK   52  A    between atoms: _123  and  _125
REMARK   53  A    between atoms: _125  and  _126
REMARK   54  A    between atoms: _125  and  _128
REMARK   55  A    between atoms: _128  and  _129
REMARK   56  A    between atoms: _129  and  _130
REMARK   57  A    between atoms: _130  and  _131
REMARK   58  A    between atoms: _140  and  _142
REMARK   59  A    between atoms: _142  and  _143
REMARK   60  A    between atoms: _145  and  _147
REMARK   61  A    between atoms: _147  and  _148
REMARK   62  A    between atoms: _147  and  _150
REMARK   63  A    between atoms: _150  and  _151
REMARK   64  A    between atoms: _151  and  _152
REMARK   65  A    between atoms: _152  and  _153
REMARK   66  A    between atoms: _162  and  _164
REMARK   67  A    between atoms: _164  and  _165
REMARK   68  A    between atoms: _164  and  _167
REMARK   69  A    between atoms: _167  and  _168
REMARK   70  A    between atoms: _173  and  _175
REMARK   71  A    between atoms: _175  and  _176
REMARK   72  A    between atoms: _178  and  _180
REMARK   73  A    between atoms: _180  and  _181
REMARK   74  A    between atoms: _180  and  _183
REMARK   75  A    between atoms: _183  and  _184
REMARK   76  A    between atoms: _184  and  _185
REMARK   77  A    between atoms: _185  and  _186
REMARK   78  A    between atoms: _195  and  _197
REMARK   79  A    between atoms: _197  and  _198
REMARK   80  A    between atoms: _200  and  _202
REMARK   81  A    between atoms: _202  and  _203
REMARK   82  A    between atoms: _202  and  _205
REMARK   83  A    between atoms: _205  and  _206
REMARK   84  A    between atoms: _216  and  _218
REMARK   85  A    between atoms: _218  and  _219
REMARK   86  A    between atoms: _222  and  _224
REMARK   87  A    between atoms: _224  and  _225
REMARK   88  A    between atoms: _228  and  _230
REMARK   89  A    between atoms: _230  and  _231
REMARK   90  A    between atoms: _230  and  _233
REMARK   91  A    between atoms: _233  and  _234
REMARK   92  A    between atoms: _237  and  _239
REMARK   93  A    between atoms: _239  and  _240
REMARK   94  A    between atoms: _239  and  _242
REMARK   95  A    between atoms: _242  and  _243
REMARK   96  A    between atoms: _243  and  _244
REMARK   97  A    between atoms: _249  and  _251
REMARK   98  A    between atoms: _251  and  _252
REMARK   99  A    between atoms: _251  and  _254
REMARK  100  A    between atoms: _254  and  _255
REMARK  101  A    between atoms: _258  and  _260
REMARK  102  A    between atoms: _260  and  _261
REMARK  103  A    between atoms: _260  and  _263
REMARK  104  A    between atoms: _263  and  _264
REMARK  105  A    between atoms: _267  and  _269
REMARK  106  A    between atoms: _269  and  _270
REMARK  107  A    between atoms: _269  and  _272
REMARK  108  A    between atoms: _272  and  _273
REMARK  109  A    between atoms: _276  and  _278
REMARK  110  A    between atoms: _278  and  _279
REMARK  111  A    between atoms: _278  and  _281
REMARK  112  A    between atoms: _281  and  _282
REMARK  113  A    between atoms: _284  and  _286
REMARK  114  A    between atoms: _286  and  _287
REMARK  115  A    between atoms: _286  and  _289
REMARK  116  A    between atoms: _292  and  _294
REMARK  117  A    between atoms: _294  and  _295
REMARK  118  A    between atoms: _294  and  _297
REMARK  119  A    between atoms: _297  and  _298
REMARK  120  A    between atoms: _298  and  _299
REMARK  121  A    between atoms: _299  and  _300
REMARK  122  A    between atoms: _300  and  _301
REMARK  123  A    between atoms: _305  and  _307
REMARK  124  A    between atoms: _307  and  _308
REMARK  125  A    between atoms: _307  and  _310
REMARK  126  A    between atoms: _310  and  _311
REMARK  127  A    between atoms: _322  and  _323
REMARK  128  A    between atoms: _328  and  _330
REMARK  129  A    between atoms: _330  and  _331
REMARK  130  A    between atoms: _330  and  _333
REMARK  131  A    between atoms: _333  and  _334
REMARK  132  A    between atoms: _339  and  _341
REMARK  133  A    between atoms: _341  and  _342
REMARK  134  A    between atoms: _341  and  _344
REMARK  135  A    between atoms: _344  and  _345
REMARK  136  A    between atoms: _348  and  _350
REMARK  137  A    between atoms: _350  and  _351
REMARK  138  A    between atoms: _350  and  _353
REMARK  139  A    between atoms: _356  and  _358
REMARK  140  A    between atoms: _358  and  _359
REMARK  141  A    between atoms: _361  and  _363
REMARK  142  A    between atoms: _363  and  _364
REMARK  143  A    between atoms: _363  and  _366
REMARK  144  A    between atoms: _366  and  _367
REMARK  145  A    between atoms: _367  and  _368
REMARK  146  A    between atoms: _368  and  _369
REMARK  147  A    between atoms: _369  and  _370
REMARK  148  A    between atoms: _374  and  _376
REMARK  149  A    between atoms: _376  and  _377
REMARK  150  A    between atoms: _376  and  _379
REMARK  151  A    between atoms: _379  and  _380
REMARK  152  A    between atoms: _383  and  _385
REMARK  153  A    between atoms: _385  and  _386
REMARK  154  A    between atoms: _389  and  _391
REMARK  155  A    between atoms: _391  and  _392
REMARK  156  A    between atoms: _394  and  _396
REMARK  157  A    between atoms: _396  and  _397
REMARK  158  A    between atoms: _396  and  _399
REMARK  159  A    between atoms: _399  and  _400
REMARK  160  A    between atoms: _403  and  _405
REMARK  161  A    between atoms: _405  and  _406
REMARK  162  A    between atoms: _405  and  _408
REMARK  163  A    between atoms: _408  and  _409
REMARK  164  A    between atoms: _412  and  _414
REMARK  165  A    between atoms: _414  and  _415
REMARK  166  A    between atoms: _418  and  _420
REMARK  167  A    between atoms: _420  and  _421
REMARK  168  A    between atoms: _420  and  _423
REMARK  169  A    between atoms: _423  and  _424
REMARK  170  A    between atoms: _424  and  _425
REMARK  171  A    between atoms: _428  and  _430
REMARK  172  A    between atoms: _430  and  _431
REMARK  173  A    between atoms: _430  and  _433
REMARK  174  A    between atoms: _436  and  _438
REMARK  175  A    between atoms: _438  and  _439
REMARK  176  A    between atoms: _438  and  _441
REMARK  177  A    between atoms: _441  and  _442
REMARK  178  A    between atoms: _445  and  _447
REMARK  179  A    between atoms: _447  and  _448
REMARK  180  A    between atoms: _450  and  _452
REMARK  181  A    between atoms: _452  and  _453
REMARK  182  A    between atoms: _452  and  _455
REMARK  183  A    between atoms: _458  and  _460
REMARK  184  A    between atoms: _460  and  _461
REMARK  185  A    between atoms: _463  and  _465
REMARK  186  A    between atoms: _465  and  _466
REMARK  187  A    between atoms: _465  and  _468
REMARK  188  A    between atoms: _468  and  _469
REMARK  189  A    between atoms: _472  and  _474
REMARK  190  A    between atoms: _474  and  _475
REMARK  191  A    between atoms: _474  and  _477
REMARK  192  A    between atoms: _477  and  _478
REMARK  193  A    between atoms: _483  and  _485
REMARK  194  A    between atoms: _485  and  _486
REMARK  195  A    between atoms: _485  and  _488
REMARK  196  A    between atoms: _491  and  _493
REMARK  197  A    between atoms: _493  and  _494
REMARK  198  A    between atoms: _493  and  _496
REMARK  199  A    between atoms: _496  and  _497
REMARK  200  A    between atoms: _497  and  _498
REMARK  201  A    between atoms: _503  and  _505
REMARK  202  A    between atoms: _505  and  _506
REMARK  203  A    between atoms: _510  and  _511
REMARK  204  A    between atoms: _516  and  _518
REMARK  205  A    between atoms: _518  and  _519
REMARK  206  A    between atoms: _518  and  _521
REMARK  207  A    between atoms: _521  and  _522
REMARK  208  A    between atoms: _522  and  _523
REMARK  209  A    between atoms: _526  and  _528
REMARK  210  A    between atoms: _528  and  _529
REMARK  211  A    between atoms: _528  and  _531
REMARK  212  A    between atoms: _534  and  _536
REMARK  213  A    between atoms: _536  and  _537
REMARK  214  A    between atoms: _536  and  _539
REMARK  215  A    between atoms: _539  and  _540
REMARK  216  A    between atoms: _544  and  _545
REMARK  217  A    between atoms: _550  and  _552
REMARK  218  A    between atoms: _552  and  _553
REMARK  219  A    between atoms: _552  and  _555
REMARK  220  A    between atoms: _555  and  _556
REMARK  221  A    between atoms: _559  and  _561
REMARK  222  A    between atoms: _561  and  _562
REMARK  223  A    between atoms: _565  and  _567
REMARK  224  A    between atoms: _567  and  _568
REMARK  225  A    between atoms: _567  and  _570
REMARK  226  A    between atoms: _570  and  _571
REMARK  227  A    between atoms: _574  and  _576
REMARK  228  A    between atoms: _576  and  _577
REMARK  229  A    between atoms: _576  and  _579
REMARK  230  A    between atoms: _579  and  _580
REMARK  231  A    between atoms: _582  and  _584
REMARK  232  A    between atoms: _584  and  _585
REMARK  233  A    between atoms: _587  and  _589
REMARK  234  A    between atoms: _589  and  _590
REMARK  235  A    between atoms: _589  and  _592
REMARK  236  A    between atoms: _592  and  _593
REMARK  237  A    between atoms: _596  and  _598
REMARK  238  A    between atoms: _598  and  _599
REMARK  239  A    between atoms: _598  and  _601
REMARK                            x       y       z     vdW  Elec       q    Type
REMARK                         _______ _______ _______ _____ _____    ______ ____
ROOT
ATOM      1  O   HOH     1       0.075  -5.745  -1.899  0.00  0.00    +0.000 OA
ENDROOT
TORSDOF 0
REMARK  Name = ../refined-set-2016/4xty/4xty_pocket.pdb
REMARK  239 active torsions:
REMARK  status: ('A' for Active; 'I' for Inactive)
REMARK    1  A    between atoms: _1  and  _3
REMARK    2  A    between atoms: _3  and  _4
REMARK    3  A    between atoms: _3  and  _6
REMARK    4  A    between atoms: _6  and  _7
REMARK    5  A    between atoms: _10  and  _12
REMARK    6  A    between atoms: _12  and  _13
REMARK    7  A    between atoms: _15  and  _17
REMARK    8  A    between atoms: _17  and  _18
REMARK    9  A    between atoms: _17  and  _20
REMARK   10  A    between atoms: _20  and  _21
REMARK   11  A    between atoms: _23  and  _25
REMARK   12  A    between atoms: _25  and  _26
REMARK   13  A    between atoms: _25  and  _28
REMARK   14  A    between atoms: _28  and  _29
REMARK   15  A    between atoms: _32  and  _34
REMARK   16  A    between atoms: _34  and  _35
REMARK   17  A    between atoms: _34  and  _37
REMARK   18  A    between atoms: _37  and  _38
REMARK   19  A    between atoms: _43  and  _45
REMARK   20  A    between atoms: _45  and  _46
REMARK   21  A    between atoms: _49  and  _51
REMARK   22  A    between atoms: _51  and  _52
REMARK   23  A    between atoms: _51  and  _54
REMARK   24  A    between atoms: _54  and  _55
REMARK   25  A    between atoms: _58  and  _60
REMARK   26  A    between atoms: _60  and  _61
REMARK   27  A    between atoms: _60  and  _63
REMARK   28  A    between atoms: _63  and  _64
REMARK   29  A    between atoms: _67  and  _69
REMARK   30  A    between atoms: _69  and  _70
REMARK   31  A    between atoms: _69  and  _72
REMARK   32  A    between atoms: _72  and  _73
REMARK   33  A    between atoms: _76  and  _78
REMARK   34  A    between atoms: _78  and  _79
REMARK   35  A    between atoms: _78  and  _81
REMARK   36  A    between atoms: _81  and  _82
REMARK   37  A    between atoms: _85  and  _87
REMARK   38  A    between atoms: _87  and  _88
REMARK   39  A    between atoms: _91  and  _93
REMARK   40  A    between atoms: _93  and  _94
REMARK   41  A    between atoms: _93  and  _96
REMARK   42  A    between atoms: _96  and  _97
REMARK   43  A    between atoms: _97  and  _98
REMARK   44  A    between atoms: _103  and  _105
REMARK   45  A    between atoms: _105  and  _106
REMARK   46  A    between atoms: _105  and  _108
REMARK   47  A    between atoms: _108  and  _109
REMARK   48  A    between atoms: _112  and  _114
REMARK   49  A    between atoms: _114  and  _115
REMARK   50  A    between atoms: _118  and  _120
REMARK   51  A    between atoms: _120  and  _121
REMARK   52  A    between atoms: _123  and  _125
REMARK   53  A    between atoms: _125  and  _126
REMARK   54  A    between atoms: _125  and  _128
REMARK   55  A    between atoms: _128  and  _129
REMARK   56  A    between atoms: _129  and  _130
REMARK   57  A    between atoms: _130  and  _131
REMARK   58  A    between atoms: _140  and  _142
REMARK   59  A    between atoms: _142  and  _143
REMARK   60  A    between atoms: _145  and  _147
REMARK   61  A    between atoms: _147  and  _148
REMARK   62  A    between atoms: _147  and  _150
REMARK   63  A    between atoms: _150  and  _151
REMARK   64  A    between atoms: _151  and  _152
REMARK   65  A    between atoms: _152  and  _153
REMARK   66  A    between atoms: _162  and  _164
REMARK   67  A    between atoms: _164  and  _165
REMARK   68  A    between atoms: _164  and  _167
REMARK   69  A    between atoms: _167  and  _168
REMARK   70  A    between atoms: _173  and  _175
REMARK   71  A    between atoms: _175  and  _176
REMARK   72  A    between atoms: _178  and  _180
REMARK   73  A    between atoms: _180  and  _181
REMARK   74  A    between atoms: _180  and  _183
REMARK   75  A    between atoms: _183  and  _184
REMARK   76  A    between atoms: _184  and  _185
REMARK   77  A    between atoms: _185  and  _186
REMARK   78  A    between atoms: _195  and  _197
REMARK   79  A    between atoms: _197  and  _198
REMARK   80  A    between atoms: _200  and  _202
REMARK   81  A    between atoms: _202  and  _203
REMARK   82  A    between atoms: _202  and  _205
REMARK   83  A    between atoms: _205  and  _206
REMARK   84  A    between atoms: _216  and  _218
REMARK   85  A    between atoms: _218  and  _219
REMARK   86  A    between atoms: _222  and  _224
REMARK   87  A    between atoms: _224  and  _225
REMARK   88  A    between atoms: _228  and  _230
REMARK   89  A    between atoms: _230  and  _231
REMARK   90  A    between atoms: _230  and  _233
REMARK   91  A    between atoms: _233  and  _234
REMARK   92  A    between atoms: _237  and  _239
REMARK   93  A    between atoms: _239  and  _240
REMARK   94  A    between atoms: _239  and  _242
REMARK   95  A    between atoms: _242  and  _243
REMARK   96  A    between atoms: _243  and  _244
REMARK   97  A    between atoms: _249  and  _251
REMARK   98  A    between atoms: _251  and  _252
REMARK   99  A    between atoms: _251  and  _254
REMARK  100  A    between atoms: _254  and  _255
REMARK  101  A    between atoms: _258  and  _260
REMARK  102  A    between atoms: _260  and  _261
REMARK  103  A    between atoms: _260  and  _263
REMARK  104  A    between atoms: _263  and  _264
REMARK  105  A    between atoms: _267  and  _269
REMARK  106  A    between atoms: _269  and  _270
REMARK  107  A    between atoms: _269  and  _272
REMARK  108  A    between atoms: _272  and  _273
REMARK  109  A    between atoms: _276  and  _278
REMARK  110  A    between atoms: _278  and  _279
REMARK  111  A    between atoms: _278  and  _281
REMARK  112  A    between atoms: _281  and  _282
REMARK  113  A    between atoms: _284  and  _286
REMARK  114  A    between atoms: _286  and  _287
REMARK  115  A    between atoms: _286  and  _289
REMARK  116  A    between atoms: _292  and  _294
REMARK  117  A    between atoms: _294  and  _295
REMARK  118  A    between atoms: _294  and  _297
REMARK  119  A    between atoms: _297  and  _298
REMARK  120  A    between atoms: _298  and  _299
REMARK  121  A    between atoms: _299  and  _300
REMARK  122  A    between atoms: _300  and  _301
REMARK  123  A    between atoms: _305  and  _307
REMARK  124  A    between atoms: _307  and  _308
REMARK  125  A    between atoms: _307  and  _310
REMARK  126  A    between atoms: _310  and  _311
REMARK  127  A    between atoms: _322  and  _323
REMARK  128  A    between atoms: _328  and  _330
REMARK  129  A    between atoms: _330  and  _331
REMARK  130  A    between atoms: _330  and  _333
REMARK  131  A    between atoms: _333  and  _334
REMARK  132  A    between atoms: _339  and  _341
REMARK  133  A    between atoms: _341  and  _342
REMARK  134  A    between atoms: _341  and  _344
REMARK  135  A    between atoms: _344  and  _345
REMARK  136  A    between atoms: _348  and  _350
REMARK  137  A    between atoms: _350  and  _351
REMARK  138  A    between atoms: _350  and  _353
REMARK  139  A    between atoms: _356  and  _358
REMARK  140  A    between atoms: _358  and  _359
REMARK  141  A    between atoms: _361  and  _363
REMARK  142  A    between atoms: _363  and  _364
REMARK  143  A    between atoms: _363  and  _366
REMARK  144  A    between atoms: _366  and  _367
REMARK  145  A    between atoms: _367  and  _368
REMARK  146  A    between atoms: _368  and  _369
REMARK  147  A    between atoms: _369  and  _370
REMARK  148  A    between atoms: _374  and  _376
REMARK  149  A    between atoms: _376  and  _377
REMARK  150  A    between atoms: _376  and  _379
REMARK  151  A    between atoms: _379  and  _380
REMARK  152  A    between atoms: _383  and  _385
REMARK  153  A    between atoms: _385  and  _386
REMARK  154  A    between atoms: _389  and  _391
REMARK  155  A    between atoms: _391  and  _392
REMARK  156  A    between atoms: _394  and  _396
REMARK  157  A    between atoms: _396  and  _397
REMARK  158  A    between atoms: _396  and  _399
REMARK  159  A    between atoms: _399  and  _400
REMARK  160  A    between atoms: _403  and  _405
REMARK  161  A    between atoms: _405  and  _406
REMARK  162  A    between atoms: _405  and  _408
REMARK  163  A    between atoms: _408  and  _409
REMARK  164  A    between atoms: _412  and  _414
REMARK  165  A    between atoms: _414  and  _415
REMARK  166  A    between atoms: _418  and  _420
REMARK  167  A    between atoms: _420  and  _421
REMARK  168  A    between atoms: _420  and  _423
REMARK  169  A    between atoms: _423  and  _424
REMARK  170  A    between atoms: _424  and  _425
REMARK  171  A    between atoms: _428  and  _430
REMARK  172  A    between atoms: _430  and  _431
REMARK  173  A    between atoms: _430  and  _433
REMARK  174  A    between atoms: _436  and  _438
REMARK  175  A    between atoms: _438  and  _439
REMARK  176  A    between atoms: _438  and  _441
REMARK  177  A    between atoms: _441  and  _442
REMARK  178  A    between atoms: _445  and  _447
REMARK  179  A    between atoms: _447  and  _448
REMARK  180  A    between atoms: _450  and  _452
REMARK  181  A    between atoms: _452  and  _453
REMARK  182  A    between atoms: _452  and  _455
REMARK  183  A    between atoms: _458  and  _460
REMARK  184  A    between atoms: _460  and  _461
REMARK  185  A    between atoms: _463  and  _465
REMARK  186  A    between atoms: _465  and  _466
REMARK  187  A    between atoms: _465  and  _468
REMARK  188  A    between atoms: _468  and  _469
REMARK  189  A    between atoms: _472  and  _474
REMARK  190  A    between atoms: _474  and  _475
REMARK  191  A    between atoms: _474  and  _477
REMARK  192  A    between atoms: _477  and  _478
REMARK  193  A    between atoms: _483  and  _485
REMARK  194  A    between atoms: _485  and  _486
REMARK  195  A    between atoms: _485  and  _488
REMARK  196  A    between atoms: _491  and  _493
REMARK  197  A    between atoms: _493  and  _494
REMARK  198  A    between atoms: _493  and  _496
REMARK  199  A    between atoms: _496  and  _497
REMARK  200  A    between atoms: _497  and  _498
REMARK  201  A    between atoms: _503  and  _505
REMARK  202  A    between atoms: _505  and  _506
REMARK  203  A    between atoms: _510  and  _511
REMARK  204  A    between atoms: _516  and  _518
REMARK  205  A    between atoms: _518  and  _519
REMARK  206  A    between atoms: _518  and  _521
REMARK  207  A    between atoms: _521  and  _522
REMARK  208  A    between atoms: _522  and  _523
REMARK  209  A    between atoms: _526  and  _528
REMARK  210  A    between atoms: _528  and  _529
REMARK  211  A    between atoms: _528  and  _531
REMARK  212  A    between atoms: _534  and  _536
REMARK  213  A    between atoms: _536  and  _537
REMARK  214  A    between atoms: _536  and  _539
REMARK  215  A    between atoms: _539  and  _540
REMARK  216  A    between atoms: _544  and  _545
REMARK  217  A    between atoms: _550  and  _552
REMARK  218  A    between atoms: _552  and  _553
REMARK  219  A    between atoms: _552  and  _555
REMARK  220  A    between atoms: _555  and  _556
REMARK  221  A    between atoms: _559  and  _561
REMARK  222  A    between atoms: _561  and  _562
REMARK  223  A    between atoms: _565  and  _567
REMARK  224  A    between atoms: _567  and  _568
REMARK  225  A    between atoms: _567  and  _570
REMARK  226  A    between atoms: _570  and  _571
REMARK  227  A    between atoms: _574  and  _576
REMARK  228  A    between atoms: _576  and  _577
REMARK  229  A    between atoms: _576  and  _579
REMARK  230  A    between atoms: _579  and  _580
REMARK  231  A    between atoms: _582  and  _584
REMARK  232  A    between atoms: _584  and  _585
REMARK  233  A    between atoms: _587  and  _589
REMARK  234  A    between atoms: _589  and  _590
REMARK  235  A    between atoms: _589  and  _592
REMARK  236  A    between atoms: _592  and  _593
REMARK  237  A    between atoms: _596  and  _598
REMARK  238  A    between atoms: _598  and  _599
REMARK  239  A    between atoms: _598  and  _601
REMARK                            x       y       z     vdW  Elec       q    Type
REMARK                         _______ _______ _______ _____ _____    ______ ____
ROOT
ATOM      1  O   HOH     1      -1.198 -10.028   1.127  0.00  0.00    +0.000 OA
ENDROOT
TORSDOF 0
REMARK  Name = ../refined-set-2016/4xty/4xty_pocket.pdb
REMARK  239 active torsions:
REMARK  status: ('A' for Active; 'I' for Inactive)
REMARK    1  A    between atoms: _1  and  _3
REMARK    2  A    between atoms: _3  and  _4
REMARK    3  A    between atoms: _3  and  _6
REMARK    4  A    between atoms: _6  and  _7
REMARK    5  A    between atoms: _10  and  _12
REMARK    6  A    between atoms: _12  and  _13
REMARK    7  A    between atoms: _15  and  _17
REMARK    8  A    between atoms: _17  and  _18
REMARK    9  A    between atoms: _17  and  _20
REMARK   10  A    between atoms: _20  and  _21
REMARK   11  A    between atoms: _23  and  _25
REMARK   12  A    between atoms: _25  and  _26
REMARK   13  A    between atoms: _25  and  _28
REMARK   14  A    between atoms: _28  and  _29
REMARK   15  A    between atoms: _32  and  _34
REMARK   16  A    between atoms: _34  and  _35
REMARK   17  A    between atoms: _34  and  _37
REMARK   18  A    between atoms: _37  and  _38
REMARK   19  A    between atoms: _43  and  _45
REMARK   20  A    between atoms: _45  and  _46
REMARK   21  A    between atoms: _49  and  _51
REMARK   22  A    between atoms: _51  and  _52
REMARK   23  A    between atoms: _51  and  _54
REMARK   24  A    between atoms: _54  and  _55
REMARK   25  A    between atoms: _58  and  _60
REMARK   26  A    between atoms: _60  and  _61
REMARK   27  A    between atoms: _60  and  _63
REMARK   28  A    between atoms: _63  and  _64
REMARK   29  A    between atoms: _67  and  _69
REMARK   30  A    between atoms: _69  and  _70
REMARK   31  A    between atoms: _69  and  _72
REMARK   32  A    between atoms: _72  and  _73
REMARK   33  A    between atoms: _76  and  _78
REMARK   34  A    between atoms: _78  and  _79
REMARK   35  A    between atoms: _78  and  _81
REMARK   36  A    between atoms: _81  and  _82
REMARK   37  A    between atoms: _85  and  _87
REMARK   38  A    between atoms: _87  and  _88
REMARK   39  A    between atoms: _91  and  _93
REMARK   40  A    between atoms: _93  and  _94
REMARK   41  A    between atoms: _93  and  _96
REMARK   42  A    between atoms: _96  and  _97
REMARK   43  A    between atoms: _97  and  _98
REMARK   44  A    between atoms: _103  and  _105
REMARK   45  A    between atoms: _105  and  _106
REMARK   46  A    between atoms: _105  and  _108
REMARK   47  A    between atoms: _108  and  _109
REMARK   48  A    between atoms: _112  and  _114
REMARK   49  A    between atoms: _114  and  _115
REMARK   50  A    between atoms: _118  and  _120
REMARK   51  A    between atoms: _120  and  _121
REMARK   52  A    between atoms: _123  and  _125
REMARK   53  A    between atoms: _125  and  _126
REMARK   54  A    between atoms: _125  and  _128
REMARK   55  A    between atoms: _128  and  _129
REMARK   56  A    between atoms: _129  and  _130
REMARK   57  A    between atoms: _130  and  _131
REMARK   58  A    between atoms: _140  and  _142
REMARK   59  A    between atoms: _142  and  _143
REMARK   60  A    between atoms: _145  and  _147
REMARK   61  A    between atoms: _147  and  _148
REMARK   62  A    between atoms: _147  and  _150
REMARK   63  A    between atoms: _150  and  _151
REMARK   64  A    between atoms: _151  and  _152
REMARK   65  A    between atoms: _152  and  _153
REMARK   66  A    between atoms: _162  and  _164
REMARK   67  A    between atoms: _164  and  _165
REMARK   68  A    between atoms: _164  and  _167
REMARK   69  A    between atoms: _167  and  _168
REMARK   70  A    between atoms: _173  and  _175
REMARK   71  A    between atoms: _175  and  _176
REMARK   72  A    between atoms: _178  and  _180
REMARK   73  A    between atoms: _180  and  _181
REMARK   74  A    between atoms: _180  and  _183
REMARK   75  A    between atoms: _183  and  _184
REMARK   76  A    between atoms: _184  and  _185
REMARK   77  A    between atoms: _185  and  _186
REMARK   78  A    between atoms: _195  and  _197
REMARK   79  A    between atoms: _197  and  _198
REMARK   80  A    between atoms: _200  and  _202
REMARK   81  A    between atoms: _202  and  _203
REMARK   82  A    between atoms: _202  and  _205
REMARK   83  A    between atoms: _205  and  _206
REMARK   84  A    between atoms: _216  and  _218
REMARK   85  A    between atoms: _218  and  _219
REMARK   86  A    between atoms: _222  and  _224
REMARK   87  A    between atoms: _224  and  _225
REMARK   88  A    between atoms: _228  and  _230
REMARK   89  A    between atoms: _230  and  _231
REMARK   90  A    between atoms: _230  and  _233
REMARK   91  A    between atoms: _233  and  _234
REMARK   92  A    between atoms: _237  and  _239
REMARK   93  A    between atoms: _239  and  _240
REMARK   94  A    between atoms: _239  and  _242
REMARK   95  A    between atoms: _242  and  _243
REMARK   96  A    between atoms: _243  and  _244
REMARK   97  A    between atoms: _249  and  _251
REMARK   98  A    between atoms: _251  and  _252
REMARK   99  A    between atoms: _251  and  _254
REMARK  100  A    between atoms: _254  and  _255
REMARK  101  A    between atoms: _258  and  _260
REMARK  102  A    between atoms: _260  and  _261
REMARK  103  A    between atoms: _260  and  _263
REMARK  104  A    between atoms: _263  and  _264
REMARK  105  A    between atoms: _267  and  _269
REMARK  106  A    between atoms: _269  and  _270
REMARK  107  A    between atoms: _269  and  _272
REMARK  108  A    between atoms: _272  and  _273
REMARK  109  A    between atoms: _276  and  _278
REMARK  110  A    between atoms: _278  and  _279
REMARK  111  A    between atoms: _278  and  _281
REMARK  112  A    between atoms: _281  and  _282
REMARK  113  A    between atoms: _284  and  _286
REMARK  114  A    between atoms: _286  and  _287
REMARK  115  A    between atoms: _286  and  _289
REMARK  116  A    between atoms: _292  and  _294
REMARK  117  A    between atoms: _294  and  _295
REMARK  118  A    between atoms: _294  and  _297
REMARK  119  A    between atoms: _297  and  _298
REMARK  120  A    between atoms: _298  and  _299
REMARK  121  A    between atoms: _299  and  _300
REMARK  122  A    between atoms: _300  and  _301
REMARK  123  A    between atoms: _305  and  _307
REMARK  124  A    between atoms: _307  and  _308
REMARK  125  A    between atoms: _307  and  _310
REMARK  126  A    between atoms: _310  and  _311
REMARK  127  A    between atoms: _322  and  _323
REMARK  128  A    between atoms: _328  and  _330
REMARK  129  A    between atoms: _330  and  _331
REMARK  130  A    between atoms: _330  and  _333
REMARK  131  A    between atoms: _333  and  _334
REMARK  132  A    between atoms: _339  and  _341
REMARK  133  A    between atoms: _341  and  _342
REMARK  134  A    between atoms: _341  and  _344
REMARK  135  A    between atoms: _344  and  _345
REMARK  136  A    between atoms: _348  and  _350
REMARK  137  A    between atoms: _350  and  _351
REMARK  138  A    between atoms: _350  and  _353
REMARK  139  A    between atoms: _356  and  _358
REMARK  140  A    between atoms: _358  and  _359
REMARK  141  A    between atoms: _361  and  _363
REMARK  142  A    between atoms: _363  and  _364
REMARK  143  A    between atoms: _363  and  _366
REMARK  144  A    between atoms: _366  and  _367
REMARK  145  A    between atoms: _367  and  _368
REMARK  146  A    between atoms: _368  and  _369
REMARK  147  A    between atoms: _369  and  _370
REMARK  148  A    between atoms: _374  and  _376
REMARK  149  A    between atoms: _376  and  _377
REMARK  150  A    between atoms: _376  and  _379
REMARK  151  A    between atoms: _379  and  _380
REMARK  152  A    between atoms: _383  and  _385
REMARK  153  A    between atoms: _385  and  _386
REMARK  154  A    between atoms: _389  and  _391
REMARK  155  A    between atoms: _391  and  _392
REMARK  156  A    between atoms: _394  and  _396
REMARK  157  A    between atoms: _396  and  _397
REMARK  158  A    between atoms: _396  and  _399
REMARK  159  A    between atoms: _399  and  _400
REMARK  160  A    between atoms: _403  and  _405
REMARK  161  A    between atoms: _405  and  _406
REMARK  162  A    between atoms: _405  and  _408
REMARK  163  A    between atoms: _408  and  _409
REMARK  164  A    between atoms: _412  and  _414
REMARK  165  A    between atoms: _414  and  _415
REMARK  166  A    between atoms: _418  and  _420
REMARK  167  A    between atoms: _420  and  _421
REMARK  168  A    between atoms: _420  and  _423
REMARK  169  A    between atoms: _423  and  _424
REMARK  170  A    between atoms: _424  and  _425
REMARK  171  A    between atoms: _428  and  _430
REMARK  172  A    between atoms: _430  and  _431
REMARK  173  A    between atoms: _430  and  _433
REMARK  174  A    between atoms: _436  and  _438
REMARK  175  A    between atoms: _438  and  _439
REMARK  176  A    between atoms: _438  and  _441
REMARK  177  A    between atoms: _441  and  _442
REMARK  178  A    between atoms: _445  and  _447
REMARK  179  A    between atoms: _447  and  _448
REMARK  180  A    between atoms: _450  and  _452
REMARK  181  A    between atoms: _452  and  _453
REMARK  182  A    between atoms: _452  and  _455
REMARK  183  A    between atoms: _458  and  _460
REMARK  184  A    between atoms: _460  and  _461
REMARK  185  A    between atoms: _463  and  _465
REMARK  186  A    between atoms: _465  and  _466
REMARK  187  A    between atoms: _465  and  _468
REMARK  188  A    between atoms: _468  and  _469
REMARK  189  A    between atoms: _472  and  _474
REMARK  190  A    between atoms: _474  and  _475
REMARK  191  A    between atoms: _474  and  _477
REMARK  192  A    between atoms: _477  and  _478
REMARK  193  A    between atoms: _483  and  _485
REMARK  194  A    between atoms: _485  and  _486
REMARK  195  A    between atoms: _485  and  _488
REMARK  196  A    between atoms: _491  and  _493
REMARK  197  A    between atoms: _493  and  _494
REMARK  198  A    between atoms: _493  and  _496
REMARK  199  A    between atoms: _496  and  _497
REMARK  200  A    between atoms: _497  and  _498
REMARK  201  A    between atoms: _503  and  _505
REMARK  202  A    between atoms: _505  and  _506
REMARK  203  A    between atoms: _510  and  _511
REMARK  204  A    between atoms: _516  and  _518
REMARK  205  A    between atoms: _518  and  _519
REMARK  206  A    between atoms: _518  and  _521
REMARK  207  A    between atoms: _521  and  _522
REMARK  208  A    between atoms: _522  and  _523
REMARK  209  A    between atoms: _526  and  _528
REMARK  210  A    between atoms: _528  and  _529
REMARK  211  A    between atoms: _528  and  _531
REMARK  212  A    between atoms: _534  and  _536
REMARK  213  A    between atoms: _536  and  _537
REMARK  214  A    between atoms: _536  and  _539
REMARK  215  A    between atoms: _539  and  _540
REMARK  216  A    between atoms: _544  and  _545
REMARK  217  A    between atoms: _550  and  _552
REMARK  218  A    between atoms: _552  and  _553
REMARK  219  A    between atoms: _552  and  _555
REMARK  220  A    between atoms: _555  and  _556
REMARK  221  A    between atoms: _559  and  _561
REMARK  222  A    between atoms: _561  and  _562
REMARK  223  A    between atoms: _565  and  _567
REMARK  224  A    between atoms: _567  and  _568
REMARK  225  A    between atoms: _567  and  _570
REMARK  226  A    between atoms: _570  and  _571
REMARK  227  A    between atoms: _574  and  _576
REMARK  228  A    between atoms: _576  and  _577
REMARK  229  A    between atoms: _576  and  _579
REMARK  230  A    between atoms: _579  and  _580
REMARK  231  A    between atoms: _582  and  _584
REMARK  232  A    between atoms: _584  and  _585
REMARK  233  A    between atoms: _587  and  _589
REMARK  234  A    between atoms: _589  and  _590
REMARK  235  A    between atoms: _589  and  _592
REMARK  236  A    between atoms: _592  and  _593
REMARK  237  A    between atoms: _596  and  _598
REMARK  238  A    between atoms: _598  and  _599
REMARK  239  A    between atoms: _598  and  _601
REMARK                            x       y       z     vdW  Elec       q    Type
REMARK                         _______ _______ _______ _____ _____    ______ ____
ROOT
ATOM      1  O   HOH     1      -1.703   3.817   6.324  0.00  0.00    +0.000 OA
ENDROOT
TORSDOF 0
REMARK  Name = ../refined-set-2016/4xty/4xty_pocket.pdb
REMARK  239 active torsions:
REMARK  status: ('A' for Active; 'I' for Inactive)
REMARK    1  A    between atoms: _1  and  _3
REMARK    2  A    between atoms: _3  and  _4
REMARK    3  A    between atoms: _3  and  _6
REMARK    4  A    between atoms: _6  and  _7
REMARK    5  A    between atoms: _10  and  _12
REMARK    6  A    between atoms: _12  and  _13
REMARK    7  A    between atoms: _15  and  _17
REMARK    8  A    between atoms: _17  and  _18
REMARK    9  A    between atoms: _17  and  _20
REMARK   10  A    between atoms: _20  and  _21
REMARK   11  A    between atoms: _23  and  _25
REMARK   12  A    between atoms: _25  and  _26
REMARK   13  A    between atoms: _25  and  _28
REMARK   14  A    between atoms: _28  and  _29
REMARK   15  A    between atoms: _32  and  _34
REMARK   16  A    between atoms: _34  and  _35
REMARK   17  A    between atoms: _34  and  _37
REMARK   18  A    between atoms: _37  and  _38
REMARK   19  A    between atoms: _43  and  _45
REMARK   20  A    between atoms: _45  and  _46
REMARK   21  A    between atoms: _49  and  _51
REMARK   22  A    between atoms: _51  and  _52
REMARK   23  A    between atoms: _51  and  _54
REMARK   24  A    between atoms: _54  and  _55
REMARK   25  A    between atoms: _58  and  _60
REMARK   26  A    between atoms: _60  and  _61
REMARK   27  A    between atoms: _60  and  _63
REMARK   28  A    between atoms: _63  and  _64
REMARK   29  A    between atoms: _67  and  _69
REMARK   30  A    between atoms: _69  and  _70
REMARK   31  A    between atoms: _69  and  _72
REMARK   32  A    between atoms: _72  and  _73
REMARK   33  A    between atoms: _76  and  _78
REMARK   34  A    between atoms: _78  and  _79
REMARK   35  A    between atoms: _78  and  _81
REMARK   36  A    between atoms: _81  and  _82
REMARK   37  A    between atoms: _85  and  _87
REMARK   38  A    between atoms: _87  and  _88
REMARK   39  A    between atoms: _91  and  _93
REMARK   40  A    between atoms: _93  and  _94
REMARK   41  A    between atoms: _93  and  _96
REMARK   42  A    between atoms: _96  and  _97
REMARK   43  A    between atoms: _97  and  _98
REMARK   44  A    between atoms: _103  and  _105
REMARK   45  A    between atoms: _105  and  _106
REMARK   46  A    between atoms: _105  and  _108
REMARK   47  A    between atoms: _108  and  _109
REMARK   48  A    between atoms: _112  and  _114
REMARK   49  A    between atoms: _114  and  _115
REMARK   50  A    between atoms: _118  and  _120
REMARK   51  A    between atoms: _120  and  _121
REMARK   52  A    between atoms: _123  and  _125
REMARK   53  A    between atoms: _125  and  _126
REMARK   54  A    between atoms: _125  and  _128
REMARK   55  A    between atoms: _128  and  _129
REMARK   56  A    between atoms: _129  and  _130
REMARK   57  A    between atoms: _130  and  _131
REMARK   58  A    between atoms: _140  and  _142
REMARK   59  A    between atoms: _142  and  _143
REMARK   60  A    between atoms: _145  and  _147
REMARK   61  A    between atoms: _147  and  _148
REMARK   62  A    between atoms: _147  and  _150
REMARK   63  A    between atoms: _150  and  _151
REMARK   64  A    between atoms: _151  and  _152
REMARK   65  A    between atoms: _152  and  _153
REMARK   66  A    between atoms: _162  and  _164
REMARK   67  A    between atoms: _164  and  _165
REMARK   68  A    between atoms: _164  and  _167
REMARK   69  A    between atoms: _167  and  _168
REMARK   70  A    between atoms: _173  and  _175
REMARK   71  A    between atoms: _175  and  _176
REMARK   72  A    between atoms: _178  and  _180
REMARK   73  A    between atoms: _180  and  _181
REMARK   74  A    between atoms: _180  and  _183
REMARK   75  A    between atoms: _183  and  _184
REMARK   76  A    between atoms: _184  and  _185
REMARK   77  A    between atoms: _185  and  _186
REMARK   78  A    between atoms: _195  and  _197
REMARK   79  A    between atoms: _197  and  _198
REMARK   80  A    between atoms: _200  and  _202
REMARK   81  A    between atoms: _202  and  _203
REMARK   82  A    between atoms: _202  and  _205
REMARK   83  A    between atoms: _205  and  _206
REMARK   84  A    between atoms: _216  and  _218
REMARK   85  A    between atoms: _218  and  _219
REMARK   86  A    between atoms: _222  and  _224
REMARK   87  A    between atoms: _224  and  _225
REMARK   88  A    between atoms: _228  and  _230
REMARK   89  A    between atoms: _230  and  _231
REMARK   90  A    between atoms: _230  and  _233
REMARK   91  A    between atoms: _233  and  _234
REMARK   92  A    between atoms: _237  and  _239
REMARK   93  A    between atoms: _239  and  _240
REMARK   94  A    between atoms: _239  and  _242
REMARK   95  A    between atoms: _242  and  _243
REMARK   96  A    between atoms: _243  and  _244
REMARK   97  A    between atoms: _249  and  _251
REMARK   98  A    between atoms: _251  and  _252
REMARK   99  A    between atoms: _251  and  _254
REMARK  100  A    between atoms: _254  and  _255
REMARK  101  A    between atoms: _258  and  _260
REMARK  102  A    between atoms: _260  and  _261
REMARK  103  A    between atoms: _260  and  _263
REMARK  104  A    between atoms: _263  and  _264
REMARK  105  A    between atoms: _267  and  _269
REMARK  106  A    between atoms: _269  and  _270
REMARK  107  A    between atoms: _269  and  _272
REMARK  108  A    between atoms: _272  and  _273
REMARK  109  A    between atoms: _276  and  _278
REMARK  110  A    between atoms: _278  and  _279
REMARK  111  A    between atoms: _278  and  _281
REMARK  112  A    between atoms: _281  and  _282
REMARK  113  A    between atoms: _284  and  _286
REMARK  114  A    between atoms: _286  and  _287
REMARK  115  A    between atoms: _286  and  _289
REMARK  116  A    between atoms: _292  and  _294
REMARK  117  A    between atoms: _294  and  _295
REMARK  118  A    between atoms: _294  and  _297
REMARK  119  A    between atoms: _297  and  _298
REMARK  120  A    between atoms: _298  and  _299
REMARK  121  A    between atoms: _299  and  _300
REMARK  122  A    between atoms: _300  and  _301
REMARK  123  A    between atoms: _305  and  _307
REMARK  124  A    between atoms: _307  and  _308
REMARK  125  A    between atoms: _307  and  _310
REMARK  126  A    between atoms: _310  and  _311
REMARK  127  A    between atoms: _322  and  _323
REMARK  128  A    between atoms: _328  and  _330
REMARK  129  A    between atoms: _330  and  _331
REMARK  130  A    between atoms: _330  and  _333
REMARK  131  A    between atoms: _333  and  _334
REMARK  132  A    between atoms: _339  and  _341
REMARK  133  A    between atoms: _341  and  _342
REMARK  134  A    between atoms: _341  and  _344
REMARK  135  A    between atoms: _344  and  _345
REMARK  136  A    between atoms: _348  and  _350
REMARK  137  A    between atoms: _350  and  _351
REMARK  138  A    between atoms: _350  and  _353
REMARK  139  A    between atoms: _356  and  _358
REMARK  140  A    between atoms: _358  and  _359
REMARK  141  A    between atoms: _361  and  _363
REMARK  142  A    between atoms: _363  and  _364
REMARK  143  A    between atoms: _363  and  _366
REMARK  144  A    between atoms: _366  and  _367
REMARK  145  A    between atoms: _367  and  _368
REMARK  146  A    between atoms: _368  and  _369
REMARK  147  A    between atoms: _369  and  _370
REMARK  148  A    between atoms: _374  and  _376
REMARK  149  A    between atoms: _376  and  _377
REMARK  150  A    between atoms: _376  and  _379
REMARK  151  A    between atoms: _379  and  _380
REMARK  152  A    between atoms: _383  and  _385
REMARK  153  A    between atoms: _385  and  _386
REMARK  154  A    between atoms: _389  and  _391
REMARK  155  A    between atoms: _391  and  _392
REMARK  156  A    between atoms: _394  and  _396
REMARK  157  A    between atoms: _396  and  _397
REMARK  158  A    between atoms: _396  and  _399
REMARK  159  A    between atoms: _399  and  _400
REMARK  160  A    between atoms: _403  and  _405
REMARK  161  A    between atoms: _405  and  _406
REMARK  162  A    between atoms: _405  and  _408
REMARK  163  A    between atoms: _408  and  _409
REMARK  164  A    between atoms: _412  and  _414
REMARK  165  A    between atoms: _414  and  _415
REMARK  166  A    between atoms: _418  and  _420
REMARK  167  A    between atoms: _420  and  _421
REMARK  168  A    between atoms: _420  and  _423
REMARK  169  A    between atoms: _423  and  _424
REMARK  170  A    between atoms: _424  and  _425
REMARK  171  A    between atoms: _428  and  _430
REMARK  172  A    between atoms: _430  and  _431
REMARK  173  A    between atoms: _430  and  _433
REMARK  174  A    between atoms: _436  and  _438
REMARK  175  A    between atoms: _438  and  _439
REMARK  176  A    between atoms: _438  and  _441
REMARK  177  A    between atoms: _441  and  _442
REMARK  178  A    between atoms: _445  and  _447
REMARK  179  A    between atoms: _447  and  _448
REMARK  180  A    between atoms: _450  and  _452
REMARK  181  A    between atoms: _452  and  _453
REMARK  182  A    between atoms: _452  and  _455
REMARK  183  A    between atoms: _458  and  _460
REMARK  184  A    between atoms: _460  and  _461
REMARK  185  A    between atoms: _463  and  _465
REMARK  186  A    between atoms: _465  and  _466
REMARK  187  A    between atoms: _465  and  _468
REMARK  188  A    between atoms: _468  and  _469
REMARK  189  A    between atoms: _472  and  _474
REMARK  190  A    between atoms: _474  and  _475
REMARK  191  A    between atoms: _474  and  _477
REMARK  192  A    between atoms: _477  and  _478
REMARK  193  A    between atoms: _483  and  _485
REMARK  194  A    between atoms: _485  and  _486
REMARK  195  A    between atoms: _485  and  _488
REMARK  196  A    between atoms: _491  and  _493
REMARK  197  A    between atoms: _493  and  _494
REMARK  198  A    between atoms: _493  and  _496
REMARK  199  A    between atoms: _496  and  _497
REMARK  200  A    between atoms: _497  and  _498
REMARK  201  A    between atoms: _503  and  _505
REMARK  202  A    between atoms: _505  and  _506
REMARK  203  A    between atoms: _510  and  _511
REMARK  204  A    between atoms: _516  and  _518
REMARK  205  A    between atoms: _518  and  _519
REMARK  206  A    between atoms: _518  and  _521
REMARK  207  A    between atoms: _521  and  _522
REMARK  208  A    between atoms: _522  and  _523
REMARK  209  A    between atoms: _526  and  _528
REMARK  210  A    between atoms: _528  and  _529
REMARK  211  A    between atoms: _528  and  _531
REMARK  212  A    between atoms: _534  and  _536
REMARK  213  A    between atoms: _536  and  _537
REMARK  214  A    between atoms: _536  and  _539
REMARK  215  A    between atoms: _539  and  _540
REMARK  216  A    between atoms: _544  and  _545
REMARK  217  A    between atoms: _550  and  _552
REMARK  218  A    between atoms: _552  and  _553
REMARK  219  A    between atoms: _552  and  _555
REMARK  220  A    between atoms: _555  and  _556
REMARK  221  A    between atoms: _559  and  _561
REMARK  222  A    between atoms: _561  and  _562
REMARK  223  A    between atoms: _565  and  _567
REMARK  224  A    between atoms: _567  and  _568
REMARK  225  A    between atoms: _567  and  _570
REMARK  226  A    between atoms: _570  and  _571
REMARK  227  A    between atoms: _574  and  _576
REMARK  228  A    between atoms: _576  and  _577
REMARK  229  A    between atoms: _576  and  _579
REMARK  230  A    between atoms: _579  and  _580
REMARK  231  A    between atoms: _582  and  _584
REMARK  232  A    between atoms: _584  and  _585
REMARK  233  A    between atoms: _587  and  _589
REMARK  234  A    between atoms: _589  and  _590
REMARK  235  A    between atoms: _589  and  _592
REMARK  236  A    between atoms: _592  and  _593
REMARK  237  A    between atoms: _596  and  _598
REMARK  238  A    between atoms: _598  and  _599
REMARK  239  A    between atoms: _598  and  _601
REMARK                            x       y       z     vdW  Elec       q    Type
REMARK                         _______ _______ _______ _____ _____    ______ ____
ROOT
ATOM      1  O   HOH     1      -1.880   2.941  11.831  0.00  0.00    +0.000 OA
ENDROOT
TORSDOF 0
REMARK  Name = ../refined-set-2016/4xty/4xty_pocket.pdb
REMARK  239 active torsions:
REMARK  status: ('A' for Active; 'I' for Inactive)
REMARK    1  A    between atoms: _1  and  _3
REMARK    2  A    between atoms: _3  and  _4
REMARK    3  A    between atoms: _3  and  _6
REMARK    4  A    between atoms: _6  and  _7
REMARK    5  A    between atoms: _10  and  _12
REMARK    6  A    between atoms: _12  and  _13
REMARK    7  A    between atoms: _15  and  _17
REMARK    8  A    between atoms: _17  and  _18
REMARK    9  A    between atoms: _17  and  _20
REMARK   10  A    between atoms: _20  and  _21
REMARK   11  A    between atoms: _23  and  _25
REMARK   12  A    between atoms: _25  and  _26
REMARK   13  A    between atoms: _25  and  _28
REMARK   14  A    between atoms: _28  and  _29
REMARK   15  A    between atoms: _32  and  _34
REMARK   16  A    between atoms: _34  and  _35
REMARK   17  A    between atoms: _34  and  _37
REMARK   18  A    between atoms: _37  and  _38
REMARK   19  A    between atoms: _43  and  _45
REMARK   20  A    between atoms: _45  and  _46
REMARK   21  A    between atoms: _49  and  _51
REMARK   22  A    between atoms: _51  and  _52
REMARK   23  A    between atoms: _51  and  _54
REMARK   24  A    between atoms: _54  and  _55
REMARK   25  A    between atoms: _58  and  _60
REMARK   26  A    between atoms: _60  and  _61
REMARK   27  A    between atoms: _60  and  _63
REMARK   28  A    between atoms: _63  and  _64
REMARK   29  A    between atoms: _67  and  _69
REMARK   30  A    between atoms: _69  and  _70
REMARK   31  A    between atoms: _69  and  _72
REMARK   32  A    between atoms: _72  and  _73
REMARK   33  A    between atoms: _76  and  _78
REMARK   34  A    between atoms: _78  and  _79
REMARK   35  A    between atoms: _78  and  _81
REMARK   36  A    between atoms: _81  and  _82
REMARK   37  A    between atoms: _85  and  _87
REMARK   38  A    between atoms: _87  and  _88
REMARK   39  A    between atoms: _91  and  _93
REMARK   40  A    between atoms: _93  and  _94
REMARK   41  A    between atoms: _93  and  _96
REMARK   42  A    between atoms: _96  and  _97
REMARK   43  A    between atoms: _97  and  _98
REMARK   44  A    between atoms: _103  and  _105
REMARK   45  A    between atoms: _105  and  _106
REMARK   46  A    between atoms: _105  and  _108
REMARK   47  A    between atoms: _108  and  _109
REMARK   48  A    between atoms: _112  and  _114
REMARK   49  A    between atoms: _114  and  _115
REMARK   50  A    between atoms: _118  and  _120
REMARK   51  A    between atoms: _120  and  _121
REMARK   52  A    between atoms: _123  and  _125
REMARK   53  A    between atoms: _125  and  _126
REMARK   54  A    between atoms: _125  and  _128
REMARK   55  A    between atoms: _128  and  _129
REMARK   56  A    between atoms: _129  and  _130
REMARK   57  A    between atoms: _130  and  _131
REMARK   58  A    between atoms: _140  and  _142
REMARK   59  A    between atoms: _142  and  _143
REMARK   60  A    between atoms: _145  and  _147
REMARK   61  A    between atoms: _147  and  _148
REMARK   62  A    between atoms: _147  and  _150
REMARK   63  A    between atoms: _150  and  _151
REMARK   64  A    between atoms: _151  and  _152
REMARK   65  A    between atoms: _152  and  _153
REMARK   66  A    between atoms: _162  and  _164
REMARK   67  A    between atoms: _164  and  _165
REMARK   68  A    between atoms: _164  and  _167
REMARK   69  A    between atoms: _167  and  _168
REMARK   70  A    between atoms: _173  and  _175
REMARK   71  A    between atoms: _175  and  _176
REMARK   72  A    between atoms: _178  and  _180
REMARK   73  A    between atoms: _180  and  _181
REMARK   74  A    between atoms: _180  and  _183
REMARK   75  A    between atoms: _183  and  _184
REMARK   76  A    between atoms: _184  and  _185
REMARK   77  A    between atoms: _185  and  _186
REMARK   78  A    between atoms: _195  and  _197
REMARK   79  A    between atoms: _197  and  _198
REMARK   80  A    between atoms: _200  and  _202
REMARK   81  A    between atoms: _202  and  _203
REMARK   82  A    between atoms: _202  and  _205
REMARK   83  A    between atoms: _205  and  _206
REMARK   84  A    between atoms: _216  and  _218
REMARK   85  A    between atoms: _218  and  _219
REMARK   86  A    between atoms: _222  and  _224
REMARK   87  A    between atoms: _224  and  _225
REMARK   88  A    between atoms: _228  and  _230
REMARK   89  A    between atoms: _230  and  _231
REMARK   90  A    between atoms: _230  and  _233
REMARK   91  A    between atoms: _233  and  _234
REMARK   92  A    between atoms: _237  and  _239
REMARK   93  A    between atoms: _239  and  _240
REMARK   94  A    between atoms: _239  and  _242
REMARK   95  A    between atoms: _242  and  _243
REMARK   96  A    between atoms: _243  and  _244
REMARK   97  A    between atoms: _249  and  _251
REMARK   98  A    between atoms: _251  and  _252
REMARK   99  A    between atoms: _251  and  _254
REMARK  100  A    between atoms: _254  and  _255
REMARK  101  A    between atoms: _258  and  _260
REMARK  102  A    between atoms: _260  and  _261
REMARK  103  A    between atoms: _260  and  _263
REMARK  104  A    between atoms: _263  and  _264
REMARK  105  A    between atoms: _267  and  _269
REMARK  106  A    between atoms: _269  and  _270
REMARK  107  A    between atoms: _269  and  _272
REMARK  108  A    between atoms: _272  and  _273
REMARK  109  A    between atoms: _276  and  _278
REMARK  110  A    between atoms: _278  and  _279
REMARK  111  A    between atoms: _278  and  _281
REMARK  112  A    between atoms: _281  and  _282
REMARK  113  A    between atoms: _284  and  _286
REMARK  114  A    between atoms: _286  and  _287
REMARK  115  A    between atoms: _286  and  _289
REMARK  116  A    between atoms: _292  and  _294
REMARK  117  A    between atoms: _294  and  _295
REMARK  118  A    between atoms: _294  and  _297
REMARK  119  A    between atoms: _297  and  _298
REMARK  120  A    between atoms: _298  and  _299
REMARK  121  A    between atoms: _299  and  _300
REMARK  122  A    between atoms: _300  and  _301
REMARK  123  A    between atoms: _305  and  _307
REMARK  124  A    between atoms: _307  and  _308
REMARK  125  A    between atoms: _307  and  _310
REMARK  126  A    between atoms: _310  and  _311
REMARK  127  A    between atoms: _322  and  _323
REMARK  128  A    between atoms: _328  and  _330
REMARK  129  A    between atoms: _330  and  _331
REMARK  130  A    between atoms: _330  and  _333
REMARK  131  A    between atoms: _333  and  _334
REMARK  132  A    between atoms: _339  and  _341
REMARK  133  A    between atoms: _341  and  _342
REMARK  134  A    between atoms: _341  and  _344
REMARK  135  A    between atoms: _344  and  _345
REMARK  136  A    between atoms: _348  and  _350
REMARK  137  A    between atoms: _350  and  _351
REMARK  138  A    between atoms: _350  and  _353
REMARK  139  A    between atoms: _356  and  _358
REMARK  140  A    between atoms: _358  and  _359
REMARK  141  A    between atoms: _361  and  _363
REMARK  142  A    between atoms: _363  and  _364
REMARK  143  A    between atoms: _363  and  _366
REMARK  144  A    between atoms: _366  and  _367
REMARK  145  A    between atoms: _367  and  _368
REMARK  146  A    between atoms: _368  and  _369
REMARK  147  A    between atoms: _369  and  _370
REMARK  148  A    between atoms: _374  and  _376
REMARK  149  A    between atoms: _376  and  _377
REMARK  150  A    between atoms: _376  and  _379
REMARK  151  A    between atoms: _379  and  _380
REMARK  152  A    between atoms: _383  and  _385
REMARK  153  A    between atoms: _385  and  _386
REMARK  154  A    between atoms: _389  and  _391
REMARK  155  A    between atoms: _391  and  _392
REMARK  156  A    between atoms: _394  and  _396
REMARK  157  A    between atoms: _396  and  _397
REMARK  158  A    between atoms: _396  and  _399
REMARK  159  A    between atoms: _399  and  _400
REMARK  160  A    between atoms: _403  and  _405
REMARK  161  A    between atoms: _405  and  _406
REMARK  162  A    between atoms: _405  and  _408
REMARK  163  A    between atoms: _408  and  _409
REMARK  164  A    between atoms: _412  and  _414
REMARK  165  A    between atoms: _414  and  _415
REMARK  166  A    between atoms: _418  and  _420
REMARK  167  A    between atoms: _420  and  _421
REMARK  168  A    between atoms: _420  and  _423
REMARK  169  A    between atoms: _423  and  _424
REMARK  170  A    between atoms: _424  and  _425
REMARK  171  A    between atoms: _428  and  _430
REMARK  172  A    between atoms: _430  and  _431
REMARK  173  A    between atoms: _430  and  _433
REMARK  174  A    between atoms: _436  and  _438
REMARK  175  A    between atoms: _438  and  _439
REMARK  176  A    between atoms: _438  and  _441
REMARK  177  A    between atoms: _441  and  _442
REMARK  178  A    between atoms: _445  and  _447
REMARK  179  A    between atoms: _447  and  _448
REMARK  180  A    between atoms: _450  and  _452
REMARK  181  A    between atoms: _452  and  _453
REMARK  182  A    between atoms: _452  and  _455
REMARK  183  A    between atoms: _458  and  _460
REMARK  184  A    between atoms: _460  and  _461
REMARK  185  A    between atoms: _463  and  _465
REMARK  186  A    between atoms: _465  and  _466
REMARK  187  A    between atoms: _465  and  _468
REMARK  188  A    between atoms: _468  and  _469
REMARK  189  A    between atoms: _472  and  _474
REMARK  190  A    between atoms: _474  and  _475
REMARK  191  A    between atoms: _474  and  _477
REMARK  192  A    between atoms: _477  and  _478
REMARK  193  A    between atoms: _483  and  _485
REMARK  194  A    between atoms: _485  and  _486
REMARK  195  A    between atoms: _485  and  _488
REMARK  196  A    between atoms: _491  and  _493
REMARK  197  A    between atoms: _493  and  _494
REMARK  198  A    between atoms: _493  and  _496
REMARK  199  A    between atoms: _496  and  _497
REMARK  200  A    between atoms: _497  and  _498
REMARK  201  A    between atoms: _503  and  _505
REMARK  202  A    between atoms: _505  and  _506
REMARK  203  A    between atoms: _510  and  _511
REMARK  204  A    between atoms: _516  and  _518
REMARK  205  A    between atoms: _518  and  _519
REMARK  206  A    between atoms: _518  and  _521
REMARK  207  A    between atoms: _521  and  _522
REMARK  208  A    between atoms: _522  and  _523
REMARK  209  A    between atoms: _526  and  _528
REMARK  210  A    between atoms: _528  and  _529
REMARK  211  A    between atoms: _528  and  _531
REMARK  212  A    between atoms: _534  and  _536
REMARK  213  A    between atoms: _536  and  _537
REMARK  214  A    between atoms: _536  and  _539
REMARK  215  A    between atoms: _539  and  _540
REMARK  216  A    between atoms: _544  and  _545
REMARK  217  A    between atoms: _550  and  _552
REMARK  218  A    between atoms: _552  and  _553
REMARK  219  A    between atoms: _552  and  _555
REMARK  220  A    between atoms: _555  and  _556
REMARK  221  A    between atoms: _559  and  _561
REMARK  222  A    between atoms: _561  and  _562
REMARK  223  A    between atoms: _565  and  _567
REMARK  224  A    between atoms: _567  and  _568
REMARK  225  A    between atoms: _567  and  _570
REMARK  226  A    between atoms: _570  and  _571
REMARK  227  A    between atoms: _574  and  _576
REMARK  228  A    between atoms: _576  and  _577
REMARK  229  A    between atoms: _576  and  _579
REMARK  230  A    between atoms: _579  and  _580
REMARK  231  A    between atoms: _582  and  _584
REMARK  232  A    between atoms: _584  and  _585
REMARK  233  A    between atoms: _587  and  _589
REMARK  234  A    between atoms: _589  and  _590
REMARK  235  A    between atoms: _589  and  _592
REMARK  236  A    between atoms: _592  and  _593
REMARK  237  A    between atoms: _596  and  _598
REMARK  238  A    between atoms: _598  and  _599
REMARK  239  A    between atoms: _598  and  _601
REMARK                            x       y       z     vdW  Elec       q    Type
REMARK                         _______ _______ _______ _____ _____    ______ ____
ROOT
ATOM      1  O   HOH     1      -6.234  -2.984   2.835  0.00  0.00    +0.000 OA
ENDROOT
TORSDOF 0
REMARK  Name = ../refined-set-2016/4xty/4xty_pocket.pdb
REMARK  239 active torsions:
REMARK  status: ('A' for Active; 'I' for Inactive)
REMARK    1  A    between atoms: _1  and  _3
REMARK    2  A    between atoms: _3  and  _4
REMARK    3  A    between atoms: _3  and  _6
REMARK    4  A    between atoms: _6  and  _7
REMARK    5  A    between atoms: _10  and  _12
REMARK    6  A    between atoms: _12  and  _13
REMARK    7  A    between atoms: _15  and  _17
REMARK    8  A    between atoms: _17  and  _18
REMARK    9  A    between atoms: _17  and  _20
REMARK   10  A    between atoms: _20  and  _21
REMARK   11  A    between atoms: _23  and  _25
REMARK   12  A    between atoms: _25  and  _26
REMARK   13  A    between atoms: _25  and  _28
REMARK   14  A    between atoms: _28  and  _29
REMARK   15  A    between atoms: _32  and  _34
REMARK   16  A    between atoms: _34  and  _35
REMARK   17  A    between atoms: _34  and  _37
REMARK   18  A    between atoms: _37  and  _38
REMARK   19  A    between atoms: _43  and  _45
REMARK   20  A    between atoms: _45  and  _46
REMARK   21  A    between atoms: _49  and  _51
REMARK   22  A    between atoms: _51  and  _52
REMARK   23  A    between atoms: _51  and  _54
REMARK   24  A    between atoms: _54  and  _55
REMARK   25  A    between atoms: _58  and  _60
REMARK   26  A    between atoms: _60  and  _61
REMARK   27  A    between atoms: _60  and  _63
REMARK   28  A    between atoms: _63  and  _64
REMARK   29  A    between atoms: _67  and  _69
REMARK   30  A    between atoms: _69  and  _70
REMARK   31  A    between atoms: _69  and  _72
REMARK   32  A    between atoms: _72  and  _73
REMARK   33  A    between atoms: _76  and  _78
REMARK   34  A    between atoms: _78  and  _79
REMARK   35  A    between atoms: _78  and  _81
REMARK   36  A    between atoms: _81  and  _82
REMARK   37  A    between atoms: _85  and  _87
REMARK   38  A    between atoms: _87  and  _88
REMARK   39  A    between atoms: _91  and  _93
REMARK   40  A    between atoms: _93  and  _94
REMARK   41  A    between atoms: _93  and  _96
REMARK   42  A    between atoms: _96  and  _97
REMARK   43  A    between atoms: _97  and  _98
REMARK   44  A    between atoms: _103  and  _105
REMARK   45  A    between atoms: _105  and  _106
REMARK   46  A    between atoms: _105  and  _108
REMARK   47  A    between atoms: _108  and  _109
REMARK   48  A    between atoms: _112  and  _114
REMARK   49  A    between atoms: _114  and  _115
REMARK   50  A    between atoms: _118  and  _120
REMARK   51  A    between atoms: _120  and  _121
REMARK   52  A    between atoms: _123  and  _125
REMARK   53  A    between atoms: _125  and  _126
REMARK   54  A    between atoms: _125  and  _128
REMARK   55  A    between atoms: _128  and  _129
REMARK   56  A    between atoms: _129  and  _130
REMARK   57  A    between atoms: _130  and  _131
REMARK   58  A    between atoms: _140  and  _142
REMARK   59  A    between atoms: _142  and  _143
REMARK   60  A    between atoms: _145  and  _147
REMARK   61  A    between atoms: _147  and  _148
REMARK   62  A    between atoms: _147  and  _150
REMARK   63  A    between atoms: _150  and  _151
REMARK   64  A    between atoms: _151  and  _152
REMARK   65  A    between atoms: _152  and  _153
REMARK   66  A    between atoms: _162  and  _164
REMARK   67  A    between atoms: _164  and  _165
REMARK   68  A    between atoms: _164  and  _167
REMARK   69  A    between atoms: _167  and  _168
REMARK   70  A    between atoms: _173  and  _175
REMARK   71  A    between atoms: _175  and  _176
REMARK   72  A    between atoms: _178  and  _180
REMARK   73  A    between atoms: _180  and  _181
REMARK   74  A    between atoms: _180  and  _183
REMARK   75  A    between atoms: _183  and  _184
REMARK   76  A    between atoms: _184  and  _185
REMARK   77  A    between atoms: _185  and  _186
REMARK   78  A    between atoms: _195  and  _197
REMARK   79  A    between atoms: _197  and  _198
REMARK   80  A    between atoms: _200  and  _202
REMARK   81  A    between atoms: _202  and  _203
REMARK   82  A    between atoms: _202  and  _205
REMARK   83  A    between atoms: _205  and  _206
REMARK   84  A    between atoms: _216  and  _218
REMARK   85  A    between atoms: _218  and  _219
REMARK   86  A    between atoms: _222  and  _224
REMARK   87  A    between atoms: _224  and  _225
REMARK   88  A    between atoms: _228  and  _230
REMARK   89  A    between atoms: _230  and  _231
REMARK   90  A    between atoms: _230  and  _233
REMARK   91  A    between atoms: _233  and  _234
REMARK   92  A    between atoms: _237  and  _239
REMARK   93  A    between atoms: _239  and  _240
REMARK   94  A    between atoms: _239  and  _242
REMARK   95  A    between atoms: _242  and  _243
REMARK   96  A    between atoms: _243  and  _244
REMARK   97  A    between atoms: _249  and  _251
REMARK   98  A    between atoms: _251  and  _252
REMARK   99  A    between atoms: _251  and  _254
REMARK  100  A    between atoms: _254  and  _255
REMARK  101  A    between atoms: _258  and  _260
REMARK  102  A    between atoms: _260  and  _261
REMARK  103  A    between atoms: _260  and  _263
REMARK  104  A    between atoms: _263  and  _264
REMARK  105  A    between atoms: _267  and  _269
REMARK  106  A    between atoms: _269  and  _270
REMARK  107  A    between atoms: _269  and  _272
REMARK  108  A    between atoms: _272  and  _273
REMARK  109  A    between atoms: _276  and  _278
REMARK  110  A    between atoms: _278  and  _279
REMARK  111  A    between atoms: _278  and  _281
REMARK  112  A    between atoms: _281  and  _282
REMARK  113  A    between atoms: _284  and  _286
REMARK  114  A    between atoms: _286  and  _287
REMARK  115  A    between atoms: _286  and  _289
REMARK  116  A    between atoms: _292  and  _294
REMARK  117  A    between atoms: _294  and  _295
REMARK  118  A    between atoms: _294  and  _297
REMARK  119  A    between atoms: _297  and  _298
REMARK  120  A    between atoms: _298  and  _299
REMARK  121  A    between atoms: _299  and  _300
REMARK  122  A    between atoms: _300  and  _301
REMARK  123  A    between atoms: _305  and  _307
REMARK  124  A    between atoms: _307  and  _308
REMARK  125  A    between atoms: _307  and  _310
REMARK  126  A    between atoms: _310  and  _311
REMARK  127  A    between atoms: _322  and  _323
REMARK  128  A    between atoms: _328  and  _330
REMARK  129  A    between atoms: _330  and  _331
REMARK  130  A    between atoms: _330  and  _333
REMARK  131  A    between atoms: _333  and  _334
REMARK  132  A    between atoms: _339  and  _341
REMARK  133  A    between atoms: _341  and  _342
REMARK  134  A    between atoms: _341  and  _344
REMARK  135  A    between atoms: _344  and  _345
REMARK  136  A    between atoms: _348  and  _350
REMARK  137  A    between atoms: _350  and  _351
REMARK  138  A    between atoms: _350  and  _353
REMARK  139  A    between atoms: _356  and  _358
REMARK  140  A    between atoms: _358  and  _359
REMARK  141  A    between atoms: _361  and  _363
REMARK  142  A    between atoms: _363  and  _364
REMARK  143  A    between atoms: _363  and  _366
REMARK  144  A    between atoms: _366  and  _367
REMARK  145  A    between atoms: _367  and  _368
REMARK  146  A    between atoms: _368  and  _369
REMARK  147  A    between atoms: _369  and  _370
REMARK  148  A    between atoms: _374  and  _376
REMARK  149  A    between atoms: _376  and  _377
REMARK  150  A    between atoms: _376  and  _379
REMARK  151  A    between atoms: _379  and  _380
REMARK  152  A    between atoms: _383  and  _385
REMARK  153  A    between atoms: _385  and  _386
REMARK  154  A    between atoms: _389  and  _391
REMARK  155  A    between atoms: _391  and  _392
REMARK  156  A    between atoms: _394  and  _396
REMARK  157  A    between atoms: _396  and  _397
REMARK  158  A    between atoms: _396  and  _399
REMARK  159  A    between atoms: _399  and  _400
REMARK  160  A    between atoms: _403  and  _405
REMARK  161  A    between atoms: _405  and  _406
REMARK  162  A    between atoms: _405  and  _408
REMARK  163  A    between atoms: _408  and  _409
REMARK  164  A    between atoms: _412  and  _414
REMARK  165  A    between atoms: _414  and  _415
REMARK  166  A    between atoms: _418  and  _420
REMARK  167  A    between atoms: _420  and  _421
REMARK  168  A    between atoms: _420  and  _423
REMARK  169  A    between atoms: _423  and  _424
REMARK  170  A    between atoms: _424  and  _425
REMARK  171  A    between atoms: _428  and  _430
REMARK  172  A    between atoms: _430  and  _431
REMARK  173  A    between atoms: _430  and  _433
REMARK  174  A    between atoms: _436  and  _438
REMARK  175  A    between atoms: _438  and  _439
REMARK  176  A    between atoms: _438  and  _441
REMARK  177  A    between atoms: _441  and  _442
REMARK  178  A    between atoms: _445  and  _447
REMARK  179  A    between atoms: _447  and  _448
REMARK  180  A    between atoms: _450  and  _452
REMARK  181  A    between atoms: _452  and  _453
REMARK  182  A    between atoms: _452  and  _455
REMARK  183  A    between atoms: _458  and  _460
REMARK  184  A    between atoms: _460  and  _461
REMARK  185  A    between atoms: _463  and  _465
REMARK  186  A    between atoms: _465  and  _466
REMARK  187  A    between atoms: _465  and  _468
REMARK  188  A    between atoms: _468  and  _469
REMARK  189  A    between atoms: _472  and  _474
REMARK  190  A    between atoms: _474  and  _475
REMARK  191  A    between atoms: _474  and  _477
REMARK  192  A    between atoms: _477  and  _478
REMARK  193  A    between atoms: _483  and  _485
REMARK  194  A    between atoms: _485  and  _486
REMARK  195  A    between atoms: _485  and  _488
REMARK  196  A    between atoms: _491  and  _493
REMARK  197  A    between atoms: _493  and  _494
REMARK  198  A    between atoms: _493  and  _496
REMARK  199  A    between atoms: _496  and  _497
REMARK  200  A    between atoms: _497  and  _498
REMARK  201  A    between atoms: _503  and  _505
REMARK  202  A    between atoms: _505  and  _506
REMARK  203  A    between atoms: _510  and  _511
REMARK  204  A    between atoms: _516  and  _518
REMARK  205  A    between atoms: _518  and  _519
REMARK  206  A    between atoms: _518  and  _521
REMARK  207  A    between atoms: _521  and  _522
REMARK  208  A    between atoms: _522  and  _523
REMARK  209  A    between atoms: _526  and  _528
REMARK  210  A    between atoms: _528  and  _529
REMARK  211  A    between atoms: _528  and  _531
REMARK  212  A    between atoms: _534  and  _536
REMARK  213  A    between atoms: _536  and  _537
REMARK  214  A    between atoms: _536  and  _539
REMARK  215  A    between atoms: _539  and  _540
REMARK  216  A    between atoms: _544  and  _545
REMARK  217  A    between atoms: _550  and  _552
REMARK  218  A    between atoms: _552  and  _553
REMARK  219  A    between atoms: _552  and  _555
REMARK  220  A    between atoms: _555  and  _556
REMARK  221  A    between atoms: _559  and  _561
REMARK  222  A    between atoms: _561  and  _562
REMARK  223  A    between atoms: _565  and  _567
REMARK  224  A    between atoms: _567  and  _568
REMARK  225  A    between atoms: _567  and  _570
REMARK  226  A    between atoms: _570  and  _571
REMARK  227  A    between atoms: _574  and  _576
REMARK  228  A    between atoms: _576  and  _577
REMARK  229  A    between atoms: _576  and  _579
REMARK  230  A    between atoms: _579  and  _580
REMARK  231  A    between atoms: _582  and  _584
REMARK  232  A    between atoms: _584  and  _585
REMARK  233  A    between atoms: _587  and  _589
REMARK  234  A    between atoms: _589  and  _590
REMARK  235  A    between atoms: _589  and  _592
REMARK  236  A    between atoms: _592  and  _593
REMARK  237  A    between atoms: _596  and  _598
REMARK  238  A    between atoms: _598  and  _599
REMARK  239  A    between atoms: _598  and  _601
REMARK                            x       y       z     vdW  Elec       q    Type
REMARK                         _______ _______ _______ _____ _____    ______ ____
ROOT
ATOM      1  O   HOH     1       3.409  -1.901  13.699  0.00  0.00    +0.000 OA
ENDROOT
TORSDOF 0
REMARK  Name = ../refined-set-2016/4xty/4xty_pocket.pdb
REMARK  239 active torsions:
REMARK  status: ('A' for Active; 'I' for Inactive)
REMARK    1  A    between atoms: _1  and  _3
REMARK    2  A    between atoms: _3  and  _4
REMARK    3  A    between atoms: _3  and  _6
REMARK    4  A    between atoms: _6  and  _7
REMARK    5  A    between atoms: _10  and  _12
REMARK    6  A    between atoms: _12  and  _13
REMARK    7  A    between atoms: _15  and  _17
REMARK    8  A    between atoms: _17  and  _18
REMARK    9  A    between atoms: _17  and  _20
REMARK   10  A    between atoms: _20  and  _21
REMARK   11  A    between atoms: _23  and  _25
REMARK   12  A    between atoms: _25  and  _26
REMARK   13  A    between atoms: _25  and  _28
REMARK   14  A    between atoms: _28  and  _29
REMARK   15  A    between atoms: _32  and  _34
REMARK   16  A    between atoms: _34  and  _35
REMARK   17  A    between atoms: _34  and  _37
REMARK   18  A    between atoms: _37  and  _38
REMARK   19  A    between atoms: _43  and  _45
REMARK   20  A    between atoms: _45  and  _46
REMARK   21  A    between atoms: _49  and  _51
REMARK   22  A    between atoms: _51  and  _52
REMARK   23  A    between atoms: _51  and  _54
REMARK   24  A    between atoms: _54  and  _55
REMARK   25  A    between atoms: _58  and  _60
REMARK   26  A    between atoms: _60  and  _61
REMARK   27  A    between atoms: _60  and  _63
REMARK   28  A    between atoms: _63  and  _64
REMARK   29  A    between atoms: _67  and  _69
REMARK   30  A    between atoms: _69  and  _70
REMARK   31  A    between atoms: _69  and  _72
REMARK   32  A    between atoms: _72  and  _73
REMARK   33  A    between atoms: _76  and  _78
REMARK   34  A    between atoms: _78  and  _79
REMARK   35  A    between atoms: _78  and  _81
REMARK   36  A    between atoms: _81  and  _82
REMARK   37  A    between atoms: _85  and  _87
REMARK   38  A    between atoms: _87  and  _88
REMARK   39  A    between atoms: _91  and  _93
REMARK   40  A    between atoms: _93  and  _94
REMARK   41  A    between atoms: _93  and  _96
REMARK   42  A    between atoms: _96  and  _97
REMARK   43  A    between atoms: _97  and  _98
REMARK   44  A    between atoms: _103  and  _105
REMARK   45  A    between atoms: _105  and  _106
REMARK   46  A    between atoms: _105  and  _108
REMARK   47  A    between atoms: _108  and  _109
REMARK   48  A    between atoms: _112  and  _114
REMARK   49  A    between atoms: _114  and  _115
REMARK   50  A    between atoms: _118  and  _120
REMARK   51  A    between atoms: _120  and  _121
REMARK   52  A    between atoms: _123  and  _125
REMARK   53  A    between atoms: _125  and  _126
REMARK   54  A    between atoms: _125  and  _128
REMARK   55  A    between atoms: _128  and  _129
REMARK   56  A    between atoms: _129  and  _130
REMARK   57  A    between atoms: _130  and  _131
REMARK   58  A    between atoms: _140  and  _142
REMARK   59  A    between atoms: _142  and  _143
REMARK   60  A    between atoms: _145  and  _147
REMARK   61  A    between atoms: _147  and  _148
REMARK   62  A    between atoms: _147  and  _150
REMARK   63  A    between atoms: _150  and  _151
REMARK   64  A    between atoms: _151  and  _152
REMARK   65  A    between atoms: _152  and  _153
REMARK   66  A    between atoms: _162  and  _164
REMARK   67  A    between atoms: _164  and  _165
REMARK   68  A    between atoms: _164  and  _167
REMARK   69  A    between atoms: _167  and  _168
REMARK   70  A    between atoms: _173  and  _175
REMARK   71  A    between atoms: _175  and  _176
REMARK   72  A    between atoms: _178  and  _180
REMARK   73  A    between atoms: _180  and  _181
REMARK   74  A    between atoms: _180  and  _183
REMARK   75  A    between atoms: _183  and  _184
REMARK   76  A    between atoms: _184  and  _185
REMARK   77  A    between atoms: _185  and  _186
REMARK   78  A    between atoms: _195  and  _197
REMARK   79  A    between atoms: _197  and  _198
REMARK   80  A    between atoms: _200  and  _202
REMARK   81  A    between atoms: _202  and  _203
REMARK   82  A    between atoms: _202  and  _205
REMARK   83  A    between atoms: _205  and  _206
REMARK   84  A    between atoms: _216  and  _218
REMARK   85  A    between atoms: _218  and  _219
REMARK   86  A    between atoms: _222  and  _224
REMARK   87  A    between atoms: _224  and  _225
REMARK   88  A    between atoms: _228  and  _230
REMARK   89  A    between atoms: _230  and  _231
REMARK   90  A    between atoms: _230  and  _233
REMARK   91  A    between atoms: _233  and  _234
REMARK   92  A    between atoms: _237  and  _239
REMARK   93  A    between atoms: _239  and  _240
REMARK   94  A    between atoms: _239  and  _242
REMARK   95  A    between atoms: _242  and  _243
REMARK   96  A    between atoms: _243  and  _244
REMARK   97  A    between atoms: _249  and  _251
REMARK   98  A    between atoms: _251  and  _252
REMARK   99  A    between atoms: _251  and  _254
REMARK  100  A    between atoms: _254  and  _255
REMARK  101  A    between atoms: _258  and  _260
REMARK  102  A    between atoms: _260  and  _261
REMARK  103  A    between atoms: _260  and  _263
REMARK  104  A    between atoms: _263  and  _264
REMARK  105  A    between atoms: _267  and  _269
REMARK  106  A    between atoms: _269  and  _270
REMARK  107  A    between atoms: _269  and  _272
REMARK  108  A    between atoms: _272  and  _273
REMARK  109  A    between atoms: _276  and  _278
REMARK  110  A    between atoms: _278  and  _279
REMARK  111  A    between atoms: _278  and  _281
REMARK  112  A    between atoms: _281  and  _282
REMARK  113  A    between atoms: _284  and  _286
REMARK  114  A    between atoms: _286  and  _287
REMARK  115  A    between atoms: _286  and  _289
REMARK  116  A    between atoms: _292  and  _294
REMARK  117  A    between atoms: _294  and  _295
REMARK  118  A    between atoms: _294  and  _297
REMARK  119  A    between atoms: _297  and  _298
REMARK  120  A    between atoms: _298  and  _299
REMARK  121  A    between atoms: _299  and  _300
REMARK  122  A    between atoms: _300  and  _301
REMARK  123  A    between atoms: _305  and  _307
REMARK  124  A    between atoms: _307  and  _308
REMARK  125  A    between atoms: _307  and  _310
REMARK  126  A    between atoms: _310  and  _311
REMARK  127  A    between atoms: _322  and  _323
REMARK  128  A    between atoms: _328  and  _330
REMARK  129  A    between atoms: _330  and  _331
REMARK  130  A    between atoms: _330  and  _333
REMARK  131  A    between atoms: _333  and  _334
REMARK  132  A    between atoms: _339  and  _341
REMARK  133  A    between atoms: _341  and  _342
REMARK  134  A    between atoms: _341  and  _344
REMARK  135  A    between atoms: _344  and  _345
REMARK  136  A    between atoms: _348  and  _350
REMARK  137  A    between atoms: _350  and  _351
REMARK  138  A    between atoms: _350  and  _353
REMARK  139  A    between atoms: _356  and  _358
REMARK  140  A    between atoms: _358  and  _359
REMARK  141  A    between atoms: _361  and  _363
REMARK  142  A    between atoms: _363  and  _364
REMARK  143  A    between atoms: _363  and  _366
REMARK  144  A    between atoms: _366  and  _367
REMARK  145  A    between atoms: _367  and  _368
REMARK  146  A    between atoms: _368  and  _369
REMARK  147  A    between atoms: _369  and  _370
REMARK  148  A    between atoms: _374  and  _376
REMARK  149  A    between atoms: _376  and  _377
REMARK  150  A    between atoms: _376  and  _379
REMARK  151  A    between atoms: _379  and  _380
REMARK  152  A    between atoms: _383  and  _385
REMARK  153  A    between atoms: _385  and  _386
REMARK  154  A    between atoms: _389  and  _391
REMARK  155  A    between atoms: _391  and  _392
REMARK  156  A    between atoms: _394  and  _396
REMARK  157  A    between atoms: _396  and  _397
REMARK  158  A    between atoms: _396  and  _399
REMARK  159  A    between atoms: _399  and  _400
REMARK  160  A    between atoms: _403  and  _405
REMARK  161  A    between atoms: _405  and  _406
REMARK  162  A    between atoms: _405  and  _408
REMARK  163  A    between atoms: _408  and  _409
REMARK  164  A    between atoms: _412  and  _414
REMARK  165  A    between atoms: _414  and  _415
REMARK  166  A    between atoms: _418  and  _420
REMARK  167  A    between atoms: _420  and  _421
REMARK  168  A    between atoms: _420  and  _423
REMARK  169  A    between atoms: _423  and  _424
REMARK  170  A    between atoms: _424  and  _425
REMARK  171  A    between atoms: _428  and  _430
REMARK  172  A    between atoms: _430  and  _431
REMARK  173  A    between atoms: _430  and  _433
REMARK  174  A    between atoms: _436  and  _438
REMARK  175  A    between atoms: _438  and  _439
REMARK  176  A    between atoms: _438  and  _441
REMARK  177  A    between atoms: _441  and  _442
REMARK  178  A    between atoms: _445  and  _447
REMARK  179  A    between atoms: _447  and  _448
REMARK  180  A    between atoms: _450  and  _452
REMARK  181  A    between atoms: _452  and  _453
REMARK  182  A    between atoms: _452  and  _455
REMARK  183  A    between atoms: _458  and  _460
REMARK  184  A    between atoms: _460  and  _461
REMARK  185  A    between atoms: _463  and  _465
REMARK  186  A    between atoms: _465  and  _466
REMARK  187  A    between atoms: _465  and  _468
REMARK  188  A    between atoms: _468  and  _469
REMARK  189  A    between atoms: _472  and  _474
REMARK  190  A    between atoms: _474  and  _475
REMARK  191  A    between atoms: _474  and  _477
REMARK  192  A    between atoms: _477  and  _478
REMARK  193  A    between atoms: _483  and  _485
REMARK  194  A    between atoms: _485  and  _486
REMARK  195  A    between atoms: _485  and  _488
REMARK  196  A    between atoms: _491  and  _493
REMARK  197  A    between atoms: _493  and  _494
REMARK  198  A    between atoms: _493  and  _496
REMARK  199  A    between atoms: _496  and  _497
REMARK  200  A    between atoms: _497  and  _498
REMARK  201  A    between atoms: _503  and  _505
REMARK  202  A    between atoms: _505  and  _506
REMARK  203  A    between atoms: _510  and  _511
REMARK  204  A    between atoms: _516  and  _518
REMARK  205  A    between atoms: _518  and  _519
REMARK  206  A    between atoms: _518  and  _521
REMARK  207  A    between atoms: _521  and  _522
REMARK  208  A    between atoms: _522  and  _523
REMARK  209  A    between atoms: _526  and  _528
REMARK  210  A    between atoms: _528  and  _529
REMARK  211  A    between atoms: _528  and  _531
REMARK  212  A    between atoms: _534  and  _536
REMARK  213  A    between atoms: _536  and  _537
REMARK  214  A    between atoms: _536  and  _539
REMARK  215  A    between atoms: _539  and  _540
REMARK  216  A    between atoms: _544  and  _545
REMARK  217  A    between atoms: _550  and  _552
REMARK  218  A    between atoms: _552  and  _553
REMARK  219  A    between atoms: _552  and  _555
REMARK  220  A    between atoms: _555  and  _556
REMARK  221  A    between atoms: _559  and  _561
REMARK  222  A    between atoms: _561  and  _562
REMARK  223  A    between atoms: _565  and  _567
REMARK  224  A    between atoms: _567  and  _568
REMARK  225  A    between atoms: _567  and  _570
REMARK  226  A    between atoms: _570  and  _571
REMARK  227  A    between atoms: _574  and  _576
REMARK  228  A    between atoms: _576  and  _577
REMARK  229  A    between atoms: _576  and  _579
REMARK  230  A    between atoms: _579  and  _580
REMARK  231  A    between atoms: _582  and  _584
REMARK  232  A    between atoms: _584  and  _585
REMARK  233  A    between atoms: _587  and  _589
REMARK  234  A    between atoms: _589  and  _590
REMARK  235  A    between atoms: _589  and  _592
REMARK  236  A    between atoms: _592  and  _593
REMARK  237  A    between atoms: _596  and  _598
REMARK  238  A    between atoms: _598  and  _599
REMARK  239  A    between atoms: _598  and  _601
REMARK                            x       y       z     vdW  Elec       q    Type
REMARK                         _______ _______ _______ _____ _____    ______ ____
ROOT
ATOM      1  O   HOH     1       3.270  -8.865   6.322  0.00  0.00    +0.000 OA
ENDROOT
TORSDOF 0
REMARK  Name = ../refined-set-2016/4xty/4xty_pocket.pdb
REMARK  239 active torsions:
REMARK  status: ('A' for Active; 'I' for Inactive)
REMARK    1  A    between atoms: _1  and  _3
REMARK    2  A    between atoms: _3  and  _4
REMARK    3  A    between atoms: _3  and  _6
REMARK    4  A    between atoms: _6  and  _7
REMARK    5  A    between atoms: _10  and  _12
REMARK    6  A    between atoms: _12  and  _13
REMARK    7  A    between atoms: _15  and  _17
REMARK    8  A    between atoms: _17  and  _18
REMARK    9  A    between atoms: _17  and  _20
REMARK   10  A    between atoms: _20  and  _21
REMARK   11  A    between atoms: _23  and  _25
REMARK   12  A    between atoms: _25  and  _26
REMARK   13  A    between atoms: _25  and  _28
REMARK   14  A    between atoms: _28  and  _29
REMARK   15  A    between atoms: _32  and  _34
REMARK   16  A    between atoms: _34  and  _35
REMARK   17  A    between atoms: _34  and  _37
REMARK   18  A    between atoms: _37  and  _38
REMARK   19  A    between atoms: _43  and  _45
REMARK   20  A    between atoms: _45  and  _46
REMARK   21  A    between atoms: _49  and  _51
REMARK   22  A    between atoms: _51  and  _52
REMARK   23  A    between atoms: _51  and  _54
REMARK   24  A    between atoms: _54  and  _55
REMARK   25  A    between atoms: _58  and  _60
REMARK   26  A    between atoms: _60  and  _61
REMARK   27  A    between atoms: _60  and  _63
REMARK   28  A    between atoms: _63  and  _64
REMARK   29  A    between atoms: _67  and  _69
REMARK   30  A    between atoms: _69  and  _70
REMARK   31  A    between atoms: _69  and  _72
REMARK   32  A    between atoms: _72  and  _73
REMARK   33  A    between atoms: _76  and  _78
REMARK   34  A    between atoms: _78  and  _79
REMARK   35  A    between atoms: _78  and  _81
REMARK   36  A    between atoms: _81  and  _82
REMARK   37  A    between atoms: _85  and  _87
REMARK   38  A    between atoms: _87  and  _88
REMARK   39  A    between atoms: _91  and  _93
REMARK   40  A    between atoms: _93  and  _94
REMARK   41  A    between atoms: _93  and  _96
REMARK   42  A    between atoms: _96  and  _97
REMARK   43  A    between atoms: _97  and  _98
REMARK   44  A    between atoms: _103  and  _105
REMARK   45  A    between atoms: _105  and  _106
REMARK   46  A    between atoms: _105  and  _108
REMARK   47  A    between atoms: _108  and  _109
REMARK   48  A    between atoms: _112  and  _114
REMARK   49  A    between atoms: _114  and  _115
REMARK   50  A    between atoms: _118  and  _120
REMARK   51  A    between atoms: _120  and  _121
REMARK   52  A    between atoms: _123  and  _125
REMARK   53  A    between atoms: _125  and  _126
REMARK   54  A    between atoms: _125  and  _128
REMARK   55  A    between atoms: _128  and  _129
REMARK   56  A    between atoms: _129  and  _130
REMARK   57  A    between atoms: _130  and  _131
REMARK   58  A    between atoms: _140  and  _142
REMARK   59  A    between atoms: _142  and  _143
REMARK   60  A    between atoms: _145  and  _147
REMARK   61  A    between atoms: _147  and  _148
REMARK   62  A    between atoms: _147  and  _150
REMARK   63  A    between atoms: _150  and  _151
REMARK   64  A    between atoms: _151  and  _152
REMARK   65  A    between atoms: _152  and  _153
REMARK   66  A    between atoms: _162  and  _164
REMARK   67  A    between atoms: _164  and  _165
REMARK   68  A    between atoms: _164  and  _167
REMARK   69  A    between atoms: _167  and  _168
REMARK   70  A    between atoms: _173  and  _175
REMARK   71  A    between atoms: _175  and  _176
REMARK   72  A    between atoms: _178  and  _180
REMARK   73  A    between atoms: _180  and  _181
REMARK   74  A    between atoms: _180  and  _183
REMARK   75  A    between atoms: _183  and  _184
REMARK   76  A    between atoms: _184  and  _185
REMARK   77  A    between atoms: _185  and  _186
REMARK   78  A    between atoms: _195  and  _197
REMARK   79  A    between atoms: _197  and  _198
REMARK   80  A    between atoms: _200  and  _202
REMARK   81  A    between atoms: _202  and  _203
REMARK   82  A    between atoms: _202  and  _205
REMARK   83  A    between atoms: _205  and  _206
REMARK   84  A    between atoms: _216  and  _218
REMARK   85  A    between atoms: _218  and  _219
REMARK   86  A    between atoms: _222  and  _224
REMARK   87  A    between atoms: _224  and  _225
REMARK   88  A    between atoms: _228  and  _230
REMARK   89  A    between atoms: _230  and  _231
REMARK   90  A    between atoms: _230  and  _233
REMARK   91  A    between atoms: _233  and  _234
REMARK   92  A    between atoms: _237  and  _239
REMARK   93  A    between atoms: _239  and  _240
REMARK   94  A    between atoms: _239  and  _242
REMARK   95  A    between atoms: _242  and  _243
REMARK   96  A    between atoms: _243  and  _244
REMARK   97  A    between atoms: _249  and  _251
REMARK   98  A    between atoms: _251  and  _252
REMARK   99  A    between atoms: _251  and  _254
REMARK  100  A    between atoms: _254  and  _255
REMARK  101  A    between atoms: _258  and  _260
REMARK  102  A    between atoms: _260  and  _261
REMARK  103  A    between atoms: _260  and  _263
REMARK  104  A    between atoms: _263  and  _264
REMARK  105  A    between atoms: _267  and  _269
REMARK  106  A    between atoms: _269  and  _270
REMARK  107  A    between atoms: _269  and  _272
REMARK  108  A    between atoms: _272  and  _273
REMARK  109  A    between atoms: _276  and  _278
REMARK  110  A    between atoms: _278  and  _279
REMARK  111  A    between atoms: _278  and  _281
REMARK  112  A    between atoms: _281  and  _282
REMARK  113  A    between atoms: _284  and  _286
REMARK  114  A    between atoms: _286  and  _287
REMARK  115  A    between atoms: _286  and  _289
REMARK  116  A    between atoms: _292  and  _294
REMARK  117  A    between atoms: _294  and  _295
REMARK  118  A    between atoms: _294  and  _297
REMARK  119  A    between atoms: _297  and  _298
REMARK  120  A    between atoms: _298  and  _299
REMARK  121  A    between atoms: _299  and  _300
REMARK  122  A    between atoms: _300  and  _301
REMARK  123  A    between atoms: _305  and  _307
REMARK  124  A    between atoms: _307  and  _308
REMARK  125  A    between atoms: _307  and  _310
REMARK  126  A    between atoms: _310  and  _311
REMARK  127  A    between atoms: _322  and  _323
REMARK  128  A    between atoms: _328  and  _330
REMARK  129  A    between atoms: _330  and  _331
REMARK  130  A    between atoms: _330  and  _333
REMARK  131  A    between atoms: _333  and  _334
REMARK  132  A    between atoms: _339  and  _341
REMARK  133  A    between atoms: _341  and  _342
REMARK  134  A    between atoms: _341  and  _344
REMARK  135  A    between atoms: _344  and  _345
REMARK  136  A    between atoms: _348  and  _350
REMARK  137  A    between atoms: _350  and  _351
REMARK  138  A    between atoms: _350  and  _353
REMARK  139  A    between atoms: _356  and  _358
REMARK  140  A    between atoms: _358  and  _359
REMARK  141  A    between atoms: _361  and  _363
REMARK  142  A    between atoms: _363  and  _364
REMARK  143  A    between atoms: _363  and  _366
REMARK  144  A    between atoms: _366  and  _367
REMARK  145  A    between atoms: _367  and  _368
REMARK  146  A    between atoms: _368  and  _369
REMARK  147  A    between atoms: _369  and  _370
REMARK  148  A    between atoms: _374  and  _376
REMARK  149  A    between atoms: _376  and  _377
REMARK  150  A    between atoms: _376  and  _379
REMARK  151  A    between atoms: _379  and  _380
REMARK  152  A    between atoms: _383  and  _385
REMARK  153  A    between atoms: _385  and  _386
REMARK  154  A    between atoms: _389  and  _391
REMARK  155  A    between atoms: _391  and  _392
REMARK  156  A    between atoms: _394  and  _396
REMARK  157  A    between atoms: _396  and  _397
REMARK  158  A    between atoms: _396  and  _399
REMARK  159  A    between atoms: _399  and  _400
REMARK  160  A    between atoms: _403  and  _405
REMARK  161  A    between atoms: _405  and  _406
REMARK  162  A    between atoms: _405  and  _408
REMARK  163  A    between atoms: _408  and  _409
REMARK  164  A    between atoms: _412  and  _414
REMARK  165  A    between atoms: _414  and  _415
REMARK  166  A    between atoms: _418  and  _420
REMARK  167  A    between atoms: _420  and  _421
REMARK  168  A    between atoms: _420  and  _423
REMARK  169  A    between atoms: _423  and  _424
REMARK  170  A    between atoms: _424  and  _425
REMARK  171  A    between atoms: _428  and  _430
REMARK  172  A    between atoms: _430  and  _431
REMARK  173  A    between atoms: _430  and  _433
REMARK  174  A    between atoms: _436  and  _438
REMARK  175  A    between atoms: _438  and  _439
REMARK  176  A    between atoms: _438  and  _441
REMARK  177  A    between atoms: _441  and  _442
REMARK  178  A    between atoms: _445  and  _447
REMARK  179  A    between atoms: _447  and  _448
REMARK  180  A    between atoms: _450  and  _452
REMARK  181  A    between atoms: _452  and  _453
REMARK  182  A    between atoms: _452  and  _455
REMARK  183  A    between atoms: _458  and  _460
REMARK  184  A    between atoms: _460  and  _461
REMARK  185  A    between atoms: _463  and  _465
REMARK  186  A    between atoms: _465  and  _466
REMARK  187  A    between atoms: _465  and  _468
REMARK  188  A    between atoms: _468  and  _469
REMARK  189  A    between atoms: _472  and  _474
REMARK  190  A    between atoms: _474  and  _475
REMARK  191  A    between atoms: _474  and  _477
REMARK  192  A    between atoms: _477  and  _478
REMARK  193  A    between atoms: _483  and  _485
REMARK  194  A    between atoms: _485  and  _486
REMARK  195  A    between atoms: _485  and  _488
REMARK  196  A    between atoms: _491  and  _493
REMARK  197  A    between atoms: _493  and  _494
REMARK  198  A    between atoms: _493  and  _496
REMARK  199  A    between atoms: _496  and  _497
REMARK  200  A    between atoms: _497  and  _498
REMARK  201  A    between atoms: _503  and  _505
REMARK  202  A    between atoms: _505  and  _506
REMARK  203  A    between atoms: _510  and  _511
REMARK  204  A    between atoms: _516  and  _518
REMARK  205  A    between atoms: _518  and  _519
REMARK  206  A    between atoms: _518  and  _521
REMARK  207  A    between atoms: _521  and  _522
REMARK  208  A    between atoms: _522  and  _523
REMARK  209  A    between atoms: _526  and  _528
REMARK  210  A    between atoms: _528  and  _529
REMARK  211  A    between atoms: _528  and  _531
REMARK  212  A    between atoms: _534  and  _536
REMARK  213  A    between atoms: _536  and  _537
REMARK  214  A    between atoms: _536  and  _539
REMARK  215  A    between atoms: _539  and  _540
REMARK  216  A    between atoms: _544  and  _545
REMARK  217  A    between atoms: _550  and  _552
REMARK  218  A    between atoms: _552  and  _553
REMARK  219  A    between atoms: _552  and  _555
REMARK  220  A    between atoms: _555  and  _556
REMARK  221  A    between atoms: _559  and  _561
REMARK  222  A    between atoms: _561  and  _562
REMARK  223  A    between atoms: _565  and  _567
REMARK  224  A    between atoms: _567  and  _568
REMARK  225  A    between atoms: _567  and  _570
REMARK  226  A    between atoms: _570  and  _571
REMARK  227  A    between atoms: _574  and  _576
REMARK  228  A    between atoms: _576  and  _577
REMARK  229  A    between atoms: _576  and  _579
REMARK  230  A    between atoms: _579  and  _580
REMARK  231  A    between atoms: _582  and  _584
REMARK  232  A    between atoms: _584  and  _585
REMARK  233  A    between atoms: _587  and  _589
REMARK  234  A    between atoms: _589  and  _590
REMARK  235  A    between atoms: _589  and  _592
REMARK  236  A    between atoms: _592  and  _593
REMARK  237  A    between atoms: _596  and  _598
REMARK  238  A    between atoms: _598  and  _599
REMARK  239  A    between atoms: _598  and  _601
REMARK                            x       y       z     vdW  Elec       q    Type
REMARK                         _______ _______ _______ _____ _____    ______ ____
ROOT
ATOM      1  O   HOH     1      -0.323   0.601  11.517  0.00  0.00    +0.000 OA
ENDROOT
TORSDOF 0
REMARK  Name = ../refined-set-2016/4xty/4xty_pocket.pdb
REMARK  239 active torsions:
REMARK  status: ('A' for Active; 'I' for Inactive)
REMARK    1  A    between atoms: _1  and  _3
REMARK    2  A    between atoms: _3  and  _4
REMARK    3  A    between atoms: _3  and  _6
REMARK    4  A    between atoms: _6  and  _7
REMARK    5  A    between atoms: _10  and  _12
REMARK    6  A    between atoms: _12  and  _13
REMARK    7  A    between atoms: _15  and  _17
REMARK    8  A    between atoms: _17  and  _18
REMARK    9  A    between atoms: _17  and  _20
REMARK   10  A    between atoms: _20  and  _21
REMARK   11  A    between atoms: _23  and  _25
REMARK   12  A    between atoms: _25  and  _26
REMARK   13  A    between atoms: _25  and  _28
REMARK   14  A    between atoms: _28  and  _29
REMARK   15  A    between atoms: _32  and  _34
REMARK   16  A    between atoms: _34  and  _35
REMARK   17  A    between atoms: _34  and  _37
REMARK   18  A    between atoms: _37  and  _38
REMARK   19  A    between atoms: _43  and  _45
REMARK   20  A    between atoms: _45  and  _46
REMARK   21  A    between atoms: _49  and  _51
REMARK   22  A    between atoms: _51  and  _52
REMARK   23  A    between atoms: _51  and  _54
REMARK   24  A    between atoms: _54  and  _55
REMARK   25  A    between atoms: _58  and  _60
REMARK   26  A    between atoms: _60  and  _61
REMARK   27  A    between atoms: _60  and  _63
REMARK   28  A    between atoms: _63  and  _64
REMARK   29  A    between atoms: _67  and  _69
REMARK   30  A    between atoms: _69  and  _70
REMARK   31  A    between atoms: _69  and  _72
REMARK   32  A    between atoms: _72  and  _73
REMARK   33  A    between atoms: _76  and  _78
REMARK   34  A    between atoms: _78  and  _79
REMARK   35  A    between atoms: _78  and  _81
REMARK   36  A    between atoms: _81  and  _82
REMARK   37  A    between atoms: _85  and  _87
REMARK   38  A    between atoms: _87  and  _88
REMARK   39  A    between atoms: _91  and  _93
REMARK   40  A    between atoms: _93  and  _94
REMARK   41  A    between atoms: _93  and  _96
REMARK   42  A    between atoms: _96  and  _97
REMARK   43  A    between atoms: _97  and  _98
REMARK   44  A    between atoms: _103  and  _105
REMARK   45  A    between atoms: _105  and  _106
REMARK   46  A    between atoms: _105  and  _108
REMARK   47  A    between atoms: _108  and  _109
REMARK   48  A    between atoms: _112  and  _114
REMARK   49  A    between atoms: _114  and  _115
REMARK   50  A    between atoms: _118  and  _120
REMARK   51  A    between atoms: _120  and  _121
REMARK   52  A    between atoms: _123  and  _125
REMARK   53  A    between atoms: _125  and  _126
REMARK   54  A    between atoms: _125  and  _128
REMARK   55  A    between atoms: _128  and  _129
REMARK   56  A    between atoms: _129  and  _130
REMARK   57  A    between atoms: _130  and  _131
REMARK   58  A    between atoms: _140  and  _142
REMARK   59  A    between atoms: _142  and  _143
REMARK   60  A    between atoms: _145  and  _147
REMARK   61  A    between atoms: _147  and  _148
REMARK   62  A    between atoms: _147  and  _150
REMARK   63  A    between atoms: _150  and  _151
REMARK   64  A    between atoms: _151  and  _152
REMARK   65  A    between atoms: _152  and  _153
REMARK   66  A    between atoms: _162  and  _164
REMARK   67  A    between atoms: _164  and  _165
REMARK   68  A    between atoms: _164  and  _167
REMARK   69  A    between atoms: _167  and  _168
REMARK   70  A    between atoms: _173  and  _175
REMARK   71  A    between atoms: _175  and  _176
REMARK   72  A    between atoms: _178  and  _180
REMARK   73  A    between atoms: _180  and  _181
REMARK   74  A    between atoms: _180  and  _183
REMARK   75  A    between atoms: _183  and  _184
REMARK   76  A    between atoms: _184  and  _185
REMARK   77  A    between atoms: _185  and  _186
REMARK   78  A    between atoms: _195  and  _197
REMARK   79  A    between atoms: _197  and  _198
REMARK   80  A    between atoms: _200  and  _202
REMARK   81  A    between atoms: _202  and  _203
REMARK   82  A    between atoms: _202  and  _205
REMARK   83  A    between atoms: _205  and  _206
REMARK   84  A    between atoms: _216  and  _218
REMARK   85  A    between atoms: _218  and  _219
REMARK   86  A    between atoms: _222  and  _224
REMARK   87  A    between atoms: _224  and  _225
REMARK   88  A    between atoms: _228  and  _230
REMARK   89  A    between atoms: _230  and  _231
REMARK   90  A    between atoms: _230  and  _233
REMARK   91  A    between atoms: _233  and  _234
REMARK   92  A    between atoms: _237  and  _239
REMARK   93  A    between atoms: _239  and  _240
REMARK   94  A    between atoms: _239  and  _242
REMARK   95  A    between atoms: _242  and  _243
REMARK   96  A    between atoms: _243  and  _244
REMARK   97  A    between atoms: _249  and  _251
REMARK   98  A    between atoms: _251  and  _252
REMARK   99  A    between atoms: _251  and  _254
REMARK  100  A    between atoms: _254  and  _255
REMARK  101  A    between atoms: _258  and  _260
REMARK  102  A    between atoms: _260  and  _261
REMARK  103  A    between atoms: _260  and  _263
REMARK  104  A    between atoms: _263  and  _264
REMARK  105  A    between atoms: _267  and  _269
REMARK  106  A    between atoms: _269  and  _270
REMARK  107  A    between atoms: _269  and  _272
REMARK  108  A    between atoms: _272  and  _273
REMARK  109  A    between atoms: _276  and  _278
REMARK  110  A    between atoms: _278  and  _279
REMARK  111  A    between atoms: _278  and  _281
REMARK  112  A    between atoms: _281  and  _282
REMARK  113  A    between atoms: _284  and  _286
REMARK  114  A    between atoms: _286  and  _287
REMARK  115  A    between atoms: _286  and  _289
REMARK  116  A    between atoms: _292  and  _294
REMARK  117  A    between atoms: _294  and  _295
REMARK  118  A    between atoms: _294  and  _297
REMARK  119  A    between atoms: _297  and  _298
REMARK  120  A    between atoms: _298  and  _299
REMARK  121  A    between atoms: _299  and  _300
REMARK  122  A    between atoms: _300  and  _301
REMARK  123  A    between atoms: _305  and  _307
REMARK  124  A    between atoms: _307  and  _308
REMARK  125  A    between atoms: _307  and  _310
REMARK  126  A    between atoms: _310  and  _311
REMARK  127  A    between atoms: _322  and  _323
REMARK  128  A    between atoms: _328  and  _330
REMARK  129  A    between atoms: _330  and  _331
REMARK  130  A    between atoms: _330  and  _333
REMARK  131  A    between atoms: _333  and  _334
REMARK  132  A    between atoms: _339  and  _341
REMARK  133  A    between atoms: _341  and  _342
REMARK  134  A    between atoms: _341  and  _344
REMARK  135  A    between atoms: _344  and  _345
REMARK  136  A    between atoms: _348  and  _350
REMARK  137  A    between atoms: _350  and  _351
REMARK  138  A    between atoms: _350  and  _353
REMARK  139  A    between atoms: _356  and  _358
REMARK  140  A    between atoms: _358  and  _359
REMARK  141  A    between atoms: _361  and  _363
REMARK  142  A    between atoms: _363  and  _364
REMARK  143  A    between atoms: _363  and  _366
REMARK  144  A    between atoms: _366  and  _367
REMARK  145  A    between atoms: _367  and  _368
REMARK  146  A    between atoms: _368  and  _369
REMARK  147  A    between atoms: _369  and  _370
REMARK  148  A    between atoms: _374  and  _376
REMARK  149  A    between atoms: _376  and  _377
REMARK  150  A    between atoms: _376  and  _379
REMARK  151  A    between atoms: _379  and  _380
REMARK  152  A    between atoms: _383  and  _385
REMARK  153  A    between atoms: _385  and  _386
REMARK  154  A    between atoms: _389  and  _391
REMARK  155  A    between atoms: _391  and  _392
REMARK  156  A    between atoms: _394  and  _396
REMARK  157  A    between atoms: _396  and  _397
REMARK  158  A    between atoms: _396  and  _399
REMARK  159  A    between atoms: _399  and  _400
REMARK  160  A    between atoms: _403  and  _405
REMARK  161  A    between atoms: _405  and  _406
REMARK  162  A    between atoms: _405  and  _408
REMARK  163  A    between atoms: _408  and  _409
REMARK  164  A    between atoms: _412  and  _414
REMARK  165  A    between atoms: _414  and  _415
REMARK  166  A    between atoms: _418  and  _420
REMARK  167  A    between atoms: _420  and  _421
REMARK  168  A    between atoms: _420  and  _423
REMARK  169  A    between atoms: _423  and  _424
REMARK  170  A    between atoms: _424  and  _425
REMARK  171  A    between atoms: _428  and  _430
REMARK  172  A    between atoms: _430  and  _431
REMARK  173  A    between atoms: _430  and  _433
REMARK  174  A    between atoms: _436  and  _438
REMARK  175  A    between atoms: _438  and  _439
REMARK  176  A    between atoms: _438  and  _441
REMARK  177  A    between atoms: _441  and  _442
REMARK  178  A    between atoms: _445  and  _447
REMARK  179  A    between atoms: _447  and  _448
REMARK  180  A    between atoms: _450  and  _452
REMARK  181  A    between atoms: _452  and  _453
REMARK  182  A    between atoms: _452  and  _455
REMARK  183  A    between atoms: _458  and  _460
REMARK  184  A    between atoms: _460  and  _461
REMARK  185  A    between atoms: _463  and  _465
REMARK  186  A    between atoms: _465  and  _466
REMARK  187  A    between atoms: _465  and  _468
REMARK  188  A    between atoms: _468  and  _469
REMARK  189  A    between atoms: _472  and  _474
REMARK  190  A    between atoms: _474  and  _475
REMARK  191  A    between atoms: _474  and  _477
REMARK  192  A    between atoms: _477  and  _478
REMARK  193  A    between atoms: _483  and  _485
REMARK  194  A    between atoms: _485  and  _486
REMARK  195  A    between atoms: _485  and  _488
REMARK  196  A    between atoms: _491  and  _493
REMARK  197  A    between atoms: _493  and  _494
REMARK  198  A    between atoms: _493  and  _496
REMARK  199  A    between atoms: _496  and  _497
REMARK  200  A    between atoms: _497  and  _498
REMARK  201  A    between atoms: _503  and  _505
REMARK  202  A    between atoms: _505  and  _506
REMARK  203  A    between atoms: _510  and  _511
REMARK  204  A    between atoms: _516  and  _518
REMARK  205  A    between atoms: _518  and  _519
REMARK  206  A    between atoms: _518  and  _521
REMARK  207  A    between atoms: _521  and  _522
REMARK  208  A    between atoms: _522  and  _523
REMARK  209  A    between atoms: _526  and  _528
REMARK  210  A    between atoms: _528  and  _529
REMARK  211  A    between atoms: _528  and  _531
REMARK  212  A    between atoms: _534  and  _536
REMARK  213  A    between atoms: _536  and  _537
REMARK  214  A    between atoms: _536  and  _539
REMARK  215  A    between atoms: _539  and  _540
REMARK  216  A    between atoms: _544  and  _545
REMARK  217  A    between atoms: _550  and  _552
REMARK  218  A    between atoms: _552  and  _553
REMARK  219  A    between atoms: _552  and  _555
REMARK  220  A    between atoms: _555  and  _556
REMARK  221  A    between atoms: _559  and  _561
REMARK  222  A    between atoms: _561  and  _562
REMARK  223  A    between atoms: _565  and  _567
REMARK  224  A    between atoms: _567  and  _568
REMARK  225  A    between atoms: _567  and  _570
REMARK  226  A    between atoms: _570  and  _571
REMARK  227  A    between atoms: _574  and  _576
REMARK  228  A    between atoms: _576  and  _577
REMARK  229  A    between atoms: _576  and  _579
REMARK  230  A    between atoms: _579  and  _580
REMARK  231  A    between atoms: _582  and  _584
REMARK  232  A    between atoms: _584  and  _585
REMARK  233  A    between atoms: _587  and  _589
REMARK  234  A    between atoms: _589  and  _590
REMARK  235  A    between atoms: _589  and  _592
REMARK  236  A    between atoms: _592  and  _593
REMARK  237  A    between atoms: _596  and  _598
REMARK  238  A    between atoms: _598  and  _599
REMARK  239  A    between atoms: _598  and  _601
REMARK                            x       y       z     vdW  Elec       q    Type
REMARK                         _______ _______ _______ _____ _____    ______ ____
ROOT
ATOM      1  O   HOH     1       1.499   0.278  13.249  0.00  0.00    +0.000 OA
ENDROOT
TORSDOF 0
REMARK  Name = ../refined-set-2016/4xty/4xty_pocket.pdb
REMARK  239 active torsions:
REMARK  status: ('A' for Active; 'I' for Inactive)
REMARK    1  A    between atoms: _1  and  _3
REMARK    2  A    between atoms: _3  and  _4
REMARK    3  A    between atoms: _3  and  _6
REMARK    4  A    between atoms: _6  and  _7
REMARK    5  A    between atoms: _10  and  _12
REMARK    6  A    between atoms: _12  and  _13
REMARK    7  A    between atoms: _15  and  _17
REMARK    8  A    between atoms: _17  and  _18
REMARK    9  A    between atoms: _17  and  _20
REMARK   10  A    between atoms: _20  and  _21
REMARK   11  A    between atoms: _23  and  _25
REMARK   12  A    between atoms: _25  and  _26
REMARK   13  A    between atoms: _25  and  _28
REMARK   14  A    between atoms: _28  and  _29
REMARK   15  A    between atoms: _32  and  _34
REMARK   16  A    between atoms: _34  and  _35
REMARK   17  A    between atoms: _34  and  _37
REMARK   18  A    between atoms: _37  and  _38
REMARK   19  A    between atoms: _43  and  _45
REMARK   20  A    between atoms: _45  and  _46
REMARK   21  A    between atoms: _49  and  _51
REMARK   22  A    between atoms: _51  and  _52
REMARK   23  A    between atoms: _51  and  _54
REMARK   24  A    between atoms: _54  and  _55
REMARK   25  A    between atoms: _58  and  _60
REMARK   26  A    between atoms: _60  and  _61
REMARK   27  A    between atoms: _60  and  _63
REMARK   28  A    between atoms: _63  and  _64
REMARK   29  A    between atoms: _67  and  _69
REMARK   30  A    between atoms: _69  and  _70
REMARK   31  A    between atoms: _69  and  _72
REMARK   32  A    between atoms: _72  and  _73
REMARK   33  A    between atoms: _76  and  _78
REMARK   34  A    between atoms: _78  and  _79
REMARK   35  A    between atoms: _78  and  _81
REMARK   36  A    between atoms: _81  and  _82
REMARK   37  A    between atoms: _85  and  _87
REMARK   38  A    between atoms: _87  and  _88
REMARK   39  A    between atoms: _91  and  _93
REMARK   40  A    between atoms: _93  and  _94
REMARK   41  A    between atoms: _93  and  _96
REMARK   42  A    between atoms: _96  and  _97
REMARK   43  A    between atoms: _97  and  _98
REMARK   44  A    between atoms: _103  and  _105
REMARK   45  A    between atoms: _105  and  _106
REMARK   46  A    between atoms: _105  and  _108
REMARK   47  A    between atoms: _108  and  _109
REMARK   48  A    between atoms: _112  and  _114
REMARK   49  A    between atoms: _114  and  _115
REMARK   50  A    between atoms: _118  and  _120
REMARK   51  A    between atoms: _120  and  _121
REMARK   52  A    between atoms: _123  and  _125
REMARK   53  A    between atoms: _125  and  _126
REMARK   54  A    between atoms: _125  and  _128
REMARK   55  A    between atoms: _128  and  _129
REMARK   56  A    between atoms: _129  and  _130
REMARK   57  A    between atoms: _130  and  _131
REMARK   58  A    between atoms: _140  and  _142
REMARK   59  A    between atoms: _142  and  _143
REMARK   60  A    between atoms: _145  and  _147
REMARK   61  A    between atoms: _147  and  _148
REMARK   62  A    between atoms: _147  and  _150
REMARK   63  A    between atoms: _150  and  _151
REMARK   64  A    between atoms: _151  and  _152
REMARK   65  A    between atoms: _152  and  _153
REMARK   66  A    between atoms: _162  and  _164
REMARK   67  A    between atoms: _164  and  _165
REMARK   68  A    between atoms: _164  and  _167
REMARK   69  A    between atoms: _167  and  _168
REMARK   70  A    between atoms: _173  and  _175
REMARK   71  A    between atoms: _175  and  _176
REMARK   72  A    between atoms: _178  and  _180
REMARK   73  A    between atoms: _180  and  _181
REMARK   74  A    between atoms: _180  and  _183
REMARK   75  A    between atoms: _183  and  _184
REMARK   76  A    between atoms: _184  and  _185
REMARK   77  A    between atoms: _185  and  _186
REMARK   78  A    between atoms: _195  and  _197
REMARK   79  A    between atoms: _197  and  _198
REMARK   80  A    between atoms: _200  and  _202
REMARK   81  A    between atoms: _202  and  _203
REMARK   82  A    between atoms: _202  and  _205
REMARK   83  A    between atoms: _205  and  _206
REMARK   84  A    between atoms: _216  and  _218
REMARK   85  A    between atoms: _218  and  _219
REMARK   86  A    between atoms: _222  and  _224
REMARK   87  A    between atoms: _224  and  _225
REMARK   88  A    between atoms: _228  and  _230
REMARK   89  A    between atoms: _230  and  _231
REMARK   90  A    between atoms: _230  and  _233
REMARK   91  A    between atoms: _233  and  _234
REMARK   92  A    between atoms: _237  and  _239
REMARK   93  A    between atoms: _239  and  _240
REMARK   94  A    between atoms: _239  and  _242
REMARK   95  A    between atoms: _242  and  _243
REMARK   96  A    between atoms: _243  and  _244
REMARK   97  A    between atoms: _249  and  _251
REMARK   98  A    between atoms: _251  and  _252
REMARK   99  A    between atoms: _251  and  _254
REMARK  100  A    between atoms: _254  and  _255
REMARK  101  A    between atoms: _258  and  _260
REMARK  102  A    between atoms: _260  and  _261
REMARK  103  A    between atoms: _260  and  _263
REMARK  104  A    between atoms: _263  and  _264
REMARK  105  A    between atoms: _267  and  _269
REMARK  106  A    between atoms: _269  and  _270
REMARK  107  A    between atoms: _269  and  _272
REMARK  108  A    between atoms: _272  and  _273
REMARK  109  A    between atoms: _276  and  _278
REMARK  110  A    between atoms: _278  and  _279
REMARK  111  A    between atoms: _278  and  _281
REMARK  112  A    between atoms: _281  and  _282
REMARK  113  A    between atoms: _284  and  _286
REMARK  114  A    between atoms: _286  and  _287
REMARK  115  A    between atoms: _286  and  _289
REMARK  116  A    between atoms: _292  and  _294
REMARK  117  A    between atoms: _294  and  _295
REMARK  118  A    between atoms: _294  and  _297
REMARK  119  A    between atoms: _297  and  _298
REMARK  120  A    between atoms: _298  and  _299
REMARK  121  A    between atoms: _299  and  _300
REMARK  122  A    between atoms: _300  and  _301
REMARK  123  A    between atoms: _305  and  _307
REMARK  124  A    between atoms: _307  and  _308
REMARK  125  A    between atoms: _307  and  _310
REMARK  126  A    between atoms: _310  and  _311
REMARK  127  A    between atoms: _322  and  _323
REMARK  128  A    between atoms: _328  and  _330
REMARK  129  A    between atoms: _330  and  _331
REMARK  130  A    between atoms: _330  and  _333
REMARK  131  A    between atoms: _333  and  _334
REMARK  132  A    between atoms: _339  and  _341
REMARK  133  A    between atoms: _341  and  _342
REMARK  134  A    between atoms: _341  and  _344
REMARK  135  A    between atoms: _344  and  _345
REMARK  136  A    between atoms: _348  and  _350
REMARK  137  A    between atoms: _350  and  _351
REMARK  138  A    between atoms: _350  and  _353
REMARK  139  A    between atoms: _356  and  _358
REMARK  140  A    between atoms: _358  and  _359
REMARK  141  A    between atoms: _361  and  _363
REMARK  142  A    between atoms: _363  and  _364
REMARK  143  A    between atoms: _363  and  _366
REMARK  144  A    between atoms: _366  and  _367
REMARK  145  A    between atoms: _367  and  _368
REMARK  146  A    between atoms: _368  and  _369
REMARK  147  A    between atoms: _369  and  _370
REMARK  148  A    between atoms: _374  and  _376
REMARK  149  A    between atoms: _376  and  _377
REMARK  150  A    between atoms: _376  and  _379
REMARK  151  A    between atoms: _379  and  _380
REMARK  152  A    between atoms: _383  and  _385
REMARK  153  A    between atoms: _385  and  _386
REMARK  154  A    between atoms: _389  and  _391
REMARK  155  A    between atoms: _391  and  _392
REMARK  156  A    between atoms: _394  and  _396
REMARK  157  A    between atoms: _396  and  _397
REMARK  158  A    between atoms: _396  and  _399
REMARK  159  A    between atoms: _399  and  _400
REMARK  160  A    between atoms: _403  and  _405
REMARK  161  A    between atoms: _405  and  _406
REMARK  162  A    between atoms: _405  and  _408
REMARK  163  A    between atoms: _408  and  _409
REMARK  164  A    between atoms: _412  and  _414
REMARK  165  A    between atoms: _414  and  _415
REMARK  166  A    between atoms: _418  and  _420
REMARK  167  A    between atoms: _420  and  _421
REMARK  168  A    between atoms: _420  and  _423
REMARK  169  A    between atoms: _423  and  _424
REMARK  170  A    between atoms: _424  and  _425
REMARK  171  A    between atoms: _428  and  _430
REMARK  172  A    between atoms: _430  and  _431
REMARK  173  A    between atoms: _430  and  _433
REMARK  174  A    between atoms: _436  and  _438
REMARK  175  A    between atoms: _438  and  _439
REMARK  176  A    between atoms: _438  and  _441
REMARK  177  A    between atoms: _441  and  _442
REMARK  178  A    between atoms: _445  and  _447
REMARK  179  A    between atoms: _447  and  _448
REMARK  180  A    between atoms: _450  and  _452
REMARK  181  A    between atoms: _452  and  _453
REMARK  182  A    between atoms: _452  and  _455
REMARK  183  A    between atoms: _458  and  _460
REMARK  184  A    between atoms: _460  and  _461
REMARK  185  A    between atoms: _463  and  _465
REMARK  186  A    between atoms: _465  and  _466
REMARK  187  A    between atoms: _465  and  _468
REMARK  188  A    between atoms: _468  and  _469
REMARK  189  A    between atoms: _472  and  _474
REMARK  190  A    between atoms: _474  and  _475
REMARK  191  A    between atoms: _474  and  _477
REMARK  192  A    between atoms: _477  and  _478
REMARK  193  A    between atoms: _483  and  _485
REMARK  194  A    between atoms: _485  and  _486
REMARK  195  A    between atoms: _485  and  _488
REMARK  196  A    between atoms: _491  and  _493
REMARK  197  A    between atoms: _493  and  _494
REMARK  198  A    between atoms: _493  and  _496
REMARK  199  A    between atoms: _496  and  _497
REMARK  200  A    between atoms: _497  and  _498
REMARK  201  A    between atoms: _503  and  _505
REMARK  202  A    between atoms: _505  and  _506
REMARK  203  A    between atoms: _510  and  _511
REMARK  204  A    between atoms: _516  and  _518
REMARK  205  A    between atoms: _518  and  _519
REMARK  206  A    between atoms: _518  and  _521
REMARK  207  A    between atoms: _521  and  _522
REMARK  208  A    between atoms: _522  and  _523
REMARK  209  A    between atoms: _526  and  _528
REMARK  210  A    between atoms: _528  and  _529
REMARK  211  A    between atoms: _528  and  _531
REMARK  212  A    between atoms: _534  and  _536
REMARK  213  A    between atoms: _536  and  _537
REMARK  214  A    between atoms: _536  and  _539
REMARK  215  A    between atoms: _539  and  _540
REMARK  216  A    between atoms: _544  and  _545
REMARK  217  A    between atoms: _550  and  _552
REMARK  218  A    between atoms: _552  and  _553
REMARK  219  A    between atoms: _552  and  _555
REMARK  220  A    between atoms: _555  and  _556
REMARK  221  A    between atoms: _559  and  _561
REMARK  222  A    between atoms: _561  and  _562
REMARK  223  A    between atoms: _565  and  _567
REMARK  224  A    between atoms: _567  and  _568
REMARK  225  A    between atoms: _567  and  _570
REMARK  226  A    between atoms: _570  and  _571
REMARK  227  A    between atoms: _574  and  _576
REMARK  228  A    between atoms: _576  and  _577
REMARK  229  A    between atoms: _576  and  _579
REMARK  230  A    between atoms: _579  and  _580
REMARK  231  A    between atoms: _582  and  _584
REMARK  232  A    between atoms: _584  and  _585
REMARK  233  A    between atoms: _587  and  _589
REMARK  234  A    between atoms: _589  and  _590
REMARK  235  A    between atoms: _589  and  _592
REMARK  236  A    between atoms: _592  and  _593
REMARK  237  A    between atoms: _596  and  _598
REMARK  238  A    between atoms: _598  and  _599
REMARK  239  A    between atoms: _598  and  _601
REMARK                            x       y       z     vdW  Elec       q    Type
REMARK                         _______ _______ _______ _____ _____    ______ ____
ROOT
ATOM      1  O   HOH     1       1.708   1.897  15.448  0.00  0.00    +0.000 OA
ENDROOT
TORSDOF 0
REMARK  Name = ../refined-set-2016/4xty/4xty_pocket.pdb
REMARK  239 active torsions:
REMARK  status: ('A' for Active; 'I' for Inactive)
REMARK    1  A    between atoms: _1  and  _3
REMARK    2  A    between atoms: _3  and  _4
REMARK    3  A    between atoms: _3  and  _6
REMARK    4  A    between atoms: _6  and  _7
REMARK    5  A    between atoms: _10  and  _12
REMARK    6  A    between atoms: _12  and  _13
REMARK    7  A    between atoms: _15  and  _17
REMARK    8  A    between atoms: _17  and  _18
REMARK    9  A    between atoms: _17  and  _20
REMARK   10  A    between atoms: _20  and  _21
REMARK   11  A    between atoms: _23  and  _25
REMARK   12  A    between atoms: _25  and  _26
REMARK   13  A    between atoms: _25  and  _28
REMARK   14  A    between atoms: _28  and  _29
REMARK   15  A    between atoms: _32  and  _34
REMARK   16  A    between atoms: _34  and  _35
REMARK   17  A    between atoms: _34  and  _37
REMARK   18  A    between atoms: _37  and  _38
REMARK   19  A    between atoms: _43  and  _45
REMARK   20  A    between atoms: _45  and  _46
REMARK   21  A    between atoms: _49  and  _51
REMARK   22  A    between atoms: _51  and  _52
REMARK   23  A    between atoms: _51  and  _54
REMARK   24  A    between atoms: _54  and  _55
REMARK   25  A    between atoms: _58  and  _60
REMARK   26  A    between atoms: _60  and  _61
REMARK   27  A    between atoms: _60  and  _63
REMARK   28  A    between atoms: _63  and  _64
REMARK   29  A    between atoms: _67  and  _69
REMARK   30  A    between atoms: _69  and  _70
REMARK   31  A    between atoms: _69  and  _72
REMARK   32  A    between atoms: _72  and  _73
REMARK   33  A    between atoms: _76  and  _78
REMARK   34  A    between atoms: _78  and  _79
REMARK   35  A    between atoms: _78  and  _81
REMARK   36  A    between atoms: _81  and  _82
REMARK   37  A    between atoms: _85  and  _87
REMARK   38  A    between atoms: _87  and  _88
REMARK   39  A    between atoms: _91  and  _93
REMARK   40  A    between atoms: _93  and  _94
REMARK   41  A    between atoms: _93  and  _96
REMARK   42  A    between atoms: _96  and  _97
REMARK   43  A    between atoms: _97  and  _98
REMARK   44  A    between atoms: _103  and  _105
REMARK   45  A    between atoms: _105  and  _106
REMARK   46  A    between atoms: _105  and  _108
REMARK   47  A    between atoms: _108  and  _109
REMARK   48  A    between atoms: _112  and  _114
REMARK   49  A    between atoms: _114  and  _115
REMARK   50  A    between atoms: _118  and  _120
REMARK   51  A    between atoms: _120  and  _121
REMARK   52  A    between atoms: _123  and  _125
REMARK   53  A    between atoms: _125  and  _126
REMARK   54  A    between atoms: _125  and  _128
REMARK   55  A    between atoms: _128  and  _129
REMARK   56  A    between atoms: _129  and  _130
REMARK   57  A    between atoms: _130  and  _131
REMARK   58  A    between atoms: _140  and  _142
REMARK   59  A    between atoms: _142  and  _143
REMARK   60  A    between atoms: _145  and  _147
REMARK   61  A    between atoms: _147  and  _148
REMARK   62  A    between atoms: _147  and  _150
REMARK   63  A    between atoms: _150  and  _151
REMARK   64  A    between atoms: _151  and  _152
REMARK   65  A    between atoms: _152  and  _153
REMARK   66  A    between atoms: _162  and  _164
REMARK   67  A    between atoms: _164  and  _165
REMARK   68  A    between atoms: _164  and  _167
REMARK   69  A    between atoms: _167  and  _168
REMARK   70  A    between atoms: _173  and  _175
REMARK   71  A    between atoms: _175  and  _176
REMARK   72  A    between atoms: _178  and  _180
REMARK   73  A    between atoms: _180  and  _181
REMARK   74  A    between atoms: _180  and  _183
REMARK   75  A    between atoms: _183  and  _184
REMARK   76  A    between atoms: _184  and  _185
REMARK   77  A    between atoms: _185  and  _186
REMARK   78  A    between atoms: _195  and  _197
REMARK   79  A    between atoms: _197  and  _198
REMARK   80  A    between atoms: _200  and  _202
REMARK   81  A    between atoms: _202  and  _203
REMARK   82  A    between atoms: _202  and  _205
REMARK   83  A    between atoms: _205  and  _206
REMARK   84  A    between atoms: _216  and  _218
REMARK   85  A    between atoms: _218  and  _219
REMARK   86  A    between atoms: _222  and  _224
REMARK   87  A    between atoms: _224  and  _225
REMARK   88  A    between atoms: _228  and  _230
REMARK   89  A    between atoms: _230  and  _231
REMARK   90  A    between atoms: _230  and  _233
REMARK   91  A    between atoms: _233  and  _234
REMARK   92  A    between atoms: _237  and  _239
REMARK   93  A    between atoms: _239  and  _240
REMARK   94  A    between atoms: _239  and  _242
REMARK   95  A    between atoms: _242  and  _243
REMARK   96  A    between atoms: _243  and  _244
REMARK   97  A    between atoms: _249  and  _251
REMARK   98  A    between atoms: _251  and  _252
REMARK   99  A    between atoms: _251  and  _254
REMARK  100  A    between atoms: _254  and  _255
REMARK  101  A    between atoms: _258  and  _260
REMARK  102  A    between atoms: _260  and  _261
REMARK  103  A    between atoms: _260  and  _263
REMARK  104  A    between atoms: _263  and  _264
REMARK  105  A    between atoms: _267  and  _269
REMARK  106  A    between atoms: _269  and  _270
REMARK  107  A    between atoms: _269  and  _272
REMARK  108  A    between atoms: _272  and  _273
REMARK  109  A    between atoms: _276  and  _278
REMARK  110  A    between atoms: _278  and  _279
REMARK  111  A    between atoms: _278  and  _281
REMARK  112  A    between atoms: _281  and  _282
REMARK  113  A    between atoms: _284  and  _286
REMARK  114  A    between atoms: _286  and  _287
REMARK  115  A    between atoms: _286  and  _289
REMARK  116  A    between atoms: _292  and  _294
REMARK  117  A    between atoms: _294  and  _295
REMARK  118  A    between atoms: _294  and  _297
REMARK  119  A    between atoms: _297  and  _298
REMARK  120  A    between atoms: _298  and  _299
REMARK  121  A    between atoms: _299  and  _300
REMARK  122  A    between atoms: _300  and  _301
REMARK  123  A    between atoms: _305  and  _307
REMARK  124  A    between atoms: _307  and  _308
REMARK  125  A    between atoms: _307  and  _310
REMARK  126  A    between atoms: _310  and  _311
REMARK  127  A    between atoms: _322  and  _323
REMARK  128  A    between atoms: _328  and  _330
REMARK  129  A    between atoms: _330  and  _331
REMARK  130  A    between atoms: _330  and  _333
REMARK  131  A    between atoms: _333  and  _334
REMARK  132  A    between atoms: _339  and  _341
REMARK  133  A    between atoms: _341  and  _342
REMARK  134  A    between atoms: _341  and  _344
REMARK  135  A    between atoms: _344  and  _345
REMARK  136  A    between atoms: _348  and  _350
REMARK  137  A    between atoms: _350  and  _351
REMARK  138  A    between atoms: _350  and  _353
REMARK  139  A    between atoms: _356  and  _358
REMARK  140  A    between atoms: _358  and  _359
REMARK  141  A    between atoms: _361  and  _363
REMARK  142  A    between atoms: _363  and  _364
REMARK  143  A    between atoms: _363  and  _366
REMARK  144  A    between atoms: _366  and  _367
REMARK  145  A    between atoms: _367  and  _368
REMARK  146  A    between atoms: _368  and  _369
REMARK  147  A    between atoms: _369  and  _370
REMARK  148  A    between atoms: _374  and  _376
REMARK  149  A    between atoms: _376  and  _377
REMARK  150  A    between atoms: _376  and  _379
REMARK  151  A    between atoms: _379  and  _380
REMARK  152  A    between atoms: _383  and  _385
REMARK  153  A    between atoms: _385  and  _386
REMARK  154  A    between atoms: _389  and  _391
REMARK  155  A    between atoms: _391  and  _392
REMARK  156  A    between atoms: _394  and  _396
REMARK  157  A    between atoms: _396  and  _397
REMARK  158  A    between atoms: _396  and  _399
REMARK  159  A    between atoms: _399  and  _400
REMARK  160  A    between atoms: _403  and  _405
REMARK  161  A    between atoms: _405  and  _406
REMARK  162  A    between atoms: _405  and  _408
REMARK  163  A    between atoms: _408  and  _409
REMARK  164  A    between atoms: _412  and  _414
REMARK  165  A    between atoms: _414  and  _415
REMARK  166  A    between atoms: _418  and  _420
REMARK  167  A    between atoms: _420  and  _421
REMARK  168  A    between atoms: _420  and  _423
REMARK  169  A    between atoms: _423  and  _424
REMARK  170  A    between atoms: _424  and  _425
REMARK  171  A    between atoms: _428  and  _430
REMARK  172  A    between atoms: _430  and  _431
REMARK  173  A    between atoms: _430  and  _433
REMARK  174  A    between atoms: _436  and  _438
REMARK  175  A    between atoms: _438  and  _439
REMARK  176  A    between atoms: _438  and  _441
REMARK  177  A    between atoms: _441  and  _442
REMARK  178  A    between atoms: _445  and  _447
REMARK  179  A    between atoms: _447  and  _448
REMARK  180  A    between atoms: _450  and  _452
REMARK  181  A    between atoms: _452  and  _453
REMARK  182  A    between atoms: _452  and  _455
REMARK  183  A    between atoms: _458  and  _460
REMARK  184  A    between atoms: _460  and  _461
REMARK  185  A    between atoms: _463  and  _465
REMARK  186  A    between atoms: _465  and  _466
REMARK  187  A    between atoms: _465  and  _468
REMARK  188  A    between atoms: _468  and  _469
REMARK  189  A    between atoms: _472  and  _474
REMARK  190  A    between atoms: _474  and  _475
REMARK  191  A    between atoms: _474  and  _477
REMARK  192  A    between atoms: _477  and  _478
REMARK  193  A    between atoms: _483  and  _485
REMARK  194  A    between atoms: _485  and  _486
REMARK  195  A    between atoms: _485  and  _488
REMARK  196  A    between atoms: _491  and  _493
REMARK  197  A    between atoms: _493  and  _494
REMARK  198  A    between atoms: _493  and  _496
REMARK  199  A    between atoms: _496  and  _497
REMARK  200  A    between atoms: _497  and  _498
REMARK  201  A    between atoms: _503  and  _505
REMARK  202  A    between atoms: _505  and  _506
REMARK  203  A    between atoms: _510  and  _511
REMARK  204  A    between atoms: _516  and  _518
REMARK  205  A    between atoms: _518  and  _519
REMARK  206  A    between atoms: _518  and  _521
REMARK  207  A    between atoms: _521  and  _522
REMARK  208  A    between atoms: _522  and  _523
REMARK  209  A    between atoms: _526  and  _528
REMARK  210  A    between atoms: _528  and  _529
REMARK  211  A    between atoms: _528  and  _531
REMARK  212  A    between atoms: _534  and  _536
REMARK  213  A    between atoms: _536  and  _537
REMARK  214  A    between atoms: _536  and  _539
REMARK  215  A    between atoms: _539  and  _540
REMARK  216  A    between atoms: _544  and  _545
REMARK  217  A    between atoms: _550  and  _552
REMARK  218  A    between atoms: _552  and  _553
REMARK  219  A    between atoms: _552  and  _555
REMARK  220  A    between atoms: _555  and  _556
REMARK  221  A    between atoms: _559  and  _561
REMARK  222  A    between atoms: _561  and  _562
REMARK  223  A    between atoms: _565  and  _567
REMARK  224  A    between atoms: _567  and  _568
REMARK  225  A    between atoms: _567  and  _570
REMARK  226  A    between atoms: _570  and  _571
REMARK  227  A    between atoms: _574  and  _576
REMARK  228  A    between atoms: _576  and  _577
REMARK  229  A    between atoms: _576  and  _579
REMARK  230  A    between atoms: _579  and  _580
REMARK  231  A    between atoms: _582  and  _584
REMARK  232  A    between atoms: _584  and  _585
REMARK  233  A    between atoms: _587  and  _589
REMARK  234  A    between atoms: _589  and  _590
REMARK  235  A    between atoms: _589  and  _592
REMARK  236  A    between atoms: _592  and  _593
REMARK  237  A    between atoms: _596  and  _598
REMARK  238  A    between atoms: _598  and  _599
REMARK  239  A    between atoms: _598  and  _601
REMARK                            x       y       z     vdW  Elec       q    Type
REMARK                         _______ _______ _______ _____ _____    ______ ____
ROOT
ATOM      1  O   HOH     1      -5.641   4.050   6.244  0.00  0.00    +0.000 OA
ENDROOT
TORSDOF 0
