REMARK  Name = ../refined-set-2016/4buq/4buq_pocket.pdb
REMARK  120 active torsions:
REMARK  status: ('A' for Active; 'I' for Inactive)
REMARK    1  A    between atoms: _1  and  _5
REMARK    2  A    between atoms: _5  and  _6
REMARK    3  A    between atoms: _5  and  _8
REMARK    4  A    between atoms: _8  and  _9
REMARK    5  A    between atoms: _15  and  _17
REMARK    6  A    between atoms: _17  and  _18
REMARK    7  A    between atoms: _22  and  _23
REMARK    8  A    between atoms: _28  and  _30
REMARK    9  A    between atoms: _30  and  _31
REMARK   10  A    between atoms: _30  and  _33
REMARK   11  A    between atoms: _33  and  _34
REMARK   12  A    between atoms: _37  and  _39
REMARK   13  A    between atoms: _39  and  _40
REMARK   14  A    between atoms: _42  and  _44
REMARK   15  A    between atoms: _44  and  _45
REMARK   16  A    between atoms: _47  and  _49
REMARK   17  A    between atoms: _49  and  _50
REMARK   18  A    between atoms: _49  and  _52
REMARK   19  A    between atoms: _52  and  _53
REMARK   20  A    between atoms: _58  and  _60
REMARK   21  A    between atoms: _60  and  _61
REMARK   22  A    between atoms: _60  and  _63
REMARK   23  A    between atoms: _63  and  _64
REMARK   24  A    between atoms: _69  and  _71
REMARK   25  A    between atoms: _71  and  _72
REMARK   26  A    between atoms: _71  and  _74
REMARK   27  A    between atoms: _74  and  _75
REMARK   28  A    between atoms: _78  and  _80
REMARK   29  A    between atoms: _80  and  _81
REMARK   30  A    between atoms: _80  and  _83
REMARK   31  A    between atoms: _83  and  _84
REMARK   32  A    between atoms: _89  and  _90
REMARK   33  A    between atoms: _93  and  _94
REMARK   34  A    between atoms: _99  and  _101
REMARK   35  A    between atoms: _101  and  _102
REMARK   36  A    between atoms: _101  and  _104
REMARK   37  A    between atoms: _104  and  _105
REMARK   38  A    between atoms: _105  and  _106
REMARK   39  A    between atoms: _109  and  _111
REMARK   40  A    between atoms: _111  and  _112
REMARK   41  A    between atoms: _111  and  _114
REMARK   42  A    between atoms: _114  and  _115
REMARK   43  A    between atoms: _118  and  _120
REMARK   44  A    between atoms: _120  and  _121
REMARK   45  A    between atoms: _120  and  _123
REMARK   46  A    between atoms: _123  and  _124
REMARK   47  A    between atoms: _127  and  _129
REMARK   48  A    between atoms: _129  and  _130
REMARK   49  A    between atoms: _129  and  _132
REMARK   50  A    between atoms: _132  and  _133
REMARK   51  A    between atoms: _136  and  _138
REMARK   52  A    between atoms: _138  and  _139
REMARK   53  A    between atoms: _138  and  _141
REMARK   54  A    between atoms: _141  and  _142
REMARK   55  A    between atoms: _145  and  _147
REMARK   56  A    between atoms: _147  and  _148
REMARK   57  A    between atoms: _147  and  _150
REMARK   58  A    between atoms: _150  and  _151
REMARK   59  A    between atoms: _156  and  _157
REMARK   60  A    between atoms: _159  and  _161
REMARK   61  A    between atoms: _161  and  _162
REMARK   62  A    between atoms: _161  and  _164
REMARK   63  A    between atoms: _164  and  _165
REMARK   64  A    between atoms: _170  and  _171
REMARK   65  A    between atoms: _173  and  _175
REMARK   66  A    between atoms: _175  and  _176
REMARK   67  A    between atoms: _175  and  _178
REMARK   68  A    between atoms: _178  and  _179
REMARK   69  A    between atoms: _181  and  _183
REMARK   70  A    between atoms: _183  and  _184
REMARK   71  A    between atoms: _183  and  _186
REMARK   72  A    between atoms: _186  and  _187
REMARK   73  A    between atoms: _187  and  _188
REMARK   74  A    between atoms: _188  and  _189
REMARK   75  A    between atoms: _198  and  _200
REMARK   76  A    between atoms: _200  and  _201
REMARK   77  A    between atoms: _200  and  _203
REMARK   78  A    between atoms: _203  and  _204
REMARK   79  A    between atoms: _204  and  _205
REMARK   80  A    between atoms: _210  and  _212
REMARK   81  A    between atoms: _212  and  _213
REMARK   82  A    between atoms: _212  and  _215
REMARK   83  A    between atoms: _215  and  _216
REMARK   84  A    between atoms: _219  and  _221
REMARK   85  A    between atoms: _221  and  _222
REMARK   86  A    between atoms: _221  and  _224
REMARK   87  A    between atoms: _224  and  _225
REMARK   88  A    between atoms: _230  and  _232
REMARK   89  A    between atoms: _232  and  _233
REMARK   90  A    between atoms: _232  and  _235
REMARK   91  A    between atoms: _235  and  _236
REMARK   92  A    between atoms: _241  and  _243
REMARK   93  A    between atoms: _243  and  _244
REMARK   94  A    between atoms: _243  and  _246
REMARK   95  A    between atoms: _246  and  _247
REMARK   96  A    between atoms: _252  and  _253
REMARK   97  A    between atoms: _255  and  _257
REMARK   98  A    between atoms: _257  and  _258
REMARK   99  A    between atoms: _257  and  _260
REMARK  100  A    between atoms: _260  and  _261
REMARK  101  A    between atoms: _266  and  _268
REMARK  102  A    between atoms: _268  and  _269
REMARK  103  A    between atoms: _268  and  _271
REMARK  104  A    between atoms: _271  and  _272
REMARK  105  A    between atoms: _274  and  _276
REMARK  106  A    between atoms: _276  and  _277
REMARK  107  A    between atoms: _276  and  _279
REMARK  108  A    between atoms: _279  and  _280
REMARK  109  A    between atoms: _283  and  _285
REMARK  110  A    between atoms: _285  and  _286
REMARK  111  A    between atoms: _285  and  _288
REMARK  112  A    between atoms: _288  and  _289
REMARK  113  A    between atoms: _292  and  _294
REMARK  114  A    between atoms: _294  and  _295
REMARK  115  A    between atoms: _294  and  _297
REMARK  116  A    between atoms: _297  and  _298
REMARK  117  A    between atoms: _304  and  _306
REMARK  118  A    between atoms: _306  and  _307
REMARK  119  A    between atoms: _306  and  _309
REMARK  120  A    between atoms: _309  and  _310
REMARK                            x       y       z     vdW  Elec       q    Type
REMARK                         _______ _______ _______ _____ _____    ______ ____
ROOT
ATOM      1  CA  PHE A   1      19.223  -4.149   2.974  0.00  0.00    +0.017 C 
ENDROOT
BRANCH   1   2
ATOM      2  N   PHE A   1      19.095  -4.094   4.435  0.00  0.00    +0.388 N 
ATOM      3  H1  PHE A   1      20.023  -4.272   4.870  0.00  0.00    -0.089 HD
ATOM      4  H2  PHE A   1      18.418  -4.818   4.750  0.00  0.00    -0.089 HD
ATOM      5  H3  PHE A   1      18.754  -3.153   4.717  0.00  0.00    -0.089 HD
ENDBRANCH   1   2
BRANCH   1   6
ATOM      6  C   PHE A   1      17.892  -3.894   2.307  0.00  0.00    +0.202 C 
ATOM      7  O   PHE A   1      16.955  -4.683   2.451  0.00  0.00    -0.277 OA
ATOM      8  N   ALA A   2      17.835  -2.809   1.546  0.00  0.00    -0.301 N 
ATOM      9  H   ALA A   2      18.666  -2.185   1.497  0.00  0.00    +0.150 HD
BRANCH   8  10
ATOM     10  CA  ALA A   2      16.652  -2.463   0.780  0.00  0.00    +0.137 C 
ATOM     11  CB  ALA A   2      15.761  -1.500   1.577  0.00  0.00    +0.030 C 
BRANCH  10  12
ATOM     12  C   ALA A   2      17.068  -1.847  -0.545  0.00  0.00    +0.227 C 
ATOM     13  O   ALA A   2      18.236  -1.471  -0.718  0.00  0.00    -0.286 OA
ENDBRANCH  10  12
ENDBRANCH   8  10
ENDBRANCH   1   6
BRANCH   1  14
ATOM     14  CB  PHE A   1      19.767  -5.496   2.479  0.00  0.00    +0.013 C 
BRANCH  14  15
ATOM     15  CG  PHE A   1      19.975  -5.546   0.966  0.00  0.00    -0.024 A 
ATOM     16  CD2 PHE A   1      21.182  -5.149   0.406  0.00  0.00    -0.004 A 
ATOM     17  CE2 PHE A   1      21.382  -5.176  -0.972  0.00  0.00    -0.000 A 
ATOM     18  CZ  PHE A   1      20.363  -5.611  -1.821  0.00  0.00    -0.000 A 
ATOM     19  CE1 PHE A   1      19.148  -6.007  -1.278  0.00  0.00    -0.000 A 
ATOM     20  CD1 PHE A   1      18.958  -5.969   0.113  0.00  0.00    -0.004 A 
ENDBRANCH  14  15
ENDBRANCH   1  14
TORSDOF 6
REMARK  Name = ../refined-set-2016/4buq/4buq_pocket.pdb
REMARK  120 active torsions:
REMARK  status: ('A' for Active; 'I' for Inactive)
REMARK    1  A    between atoms: _1  and  _5
REMARK    2  A    between atoms: _5  and  _6
REMARK    3  A    between atoms: _5  and  _8
REMARK    4  A    between atoms: _8  and  _9
REMARK    5  A    between atoms: _15  and  _17
REMARK    6  A    between atoms: _17  and  _18
REMARK    7  A    between atoms: _22  and  _23
REMARK    8  A    between atoms: _28  and  _30
REMARK    9  A    between atoms: _30  and  _31
REMARK   10  A    between atoms: _30  and  _33
REMARK   11  A    between atoms: _33  and  _34
REMARK   12  A    between atoms: _37  and  _39
REMARK   13  A    between atoms: _39  and  _40
REMARK   14  A    between atoms: _42  and  _44
REMARK   15  A    between atoms: _44  and  _45
REMARK   16  A    between atoms: _47  and  _49
REMARK   17  A    between atoms: _49  and  _50
REMARK   18  A    between atoms: _49  and  _52
REMARK   19  A    between atoms: _52  and  _53
REMARK   20  A    between atoms: _58  and  _60
REMARK   21  A    between atoms: _60  and  _61
REMARK   22  A    between atoms: _60  and  _63
REMARK   23  A    between atoms: _63  and  _64
REMARK   24  A    between atoms: _69  and  _71
REMARK   25  A    between atoms: _71  and  _72
REMARK   26  A    between atoms: _71  and  _74
REMARK   27  A    between atoms: _74  and  _75
REMARK   28  A    between atoms: _78  and  _80
REMARK   29  A    between atoms: _80  and  _81
REMARK   30  A    between atoms: _80  and  _83
REMARK   31  A    between atoms: _83  and  _84
REMARK   32  A    between atoms: _89  and  _90
REMARK   33  A    between atoms: _93  and  _94
REMARK   34  A    between atoms: _99  and  _101
REMARK   35  A    between atoms: _101  and  _102
REMARK   36  A    between atoms: _101  and  _104
REMARK   37  A    between atoms: _104  and  _105
REMARK   38  A    between atoms: _105  and  _106
REMARK   39  A    between atoms: _109  and  _111
REMARK   40  A    between atoms: _111  and  _112
REMARK   41  A    between atoms: _111  and  _114
REMARK   42  A    between atoms: _114  and  _115
REMARK   43  A    between atoms: _118  and  _120
REMARK   44  A    between atoms: _120  and  _121
REMARK   45  A    between atoms: _120  and  _123
REMARK   46  A    between atoms: _123  and  _124
REMARK   47  A    between atoms: _127  and  _129
REMARK   48  A    between atoms: _129  and  _130
REMARK   49  A    between atoms: _129  and  _132
REMARK   50  A    between atoms: _132  and  _133
REMARK   51  A    between atoms: _136  and  _138
REMARK   52  A    between atoms: _138  and  _139
REMARK   53  A    between atoms: _138  and  _141
REMARK   54  A    between atoms: _141  and  _142
REMARK   55  A    between atoms: _145  and  _147
REMARK   56  A    between atoms: _147  and  _148
REMARK   57  A    between atoms: _147  and  _150
REMARK   58  A    between atoms: _150  and  _151
REMARK   59  A    between atoms: _156  and  _157
REMARK   60  A    between atoms: _159  and  _161
REMARK   61  A    between atoms: _161  and  _162
REMARK   62  A    between atoms: _161  and  _164
REMARK   63  A    between atoms: _164  and  _165
REMARK   64  A    between atoms: _170  and  _171
REMARK   65  A    between atoms: _173  and  _175
REMARK   66  A    between atoms: _175  and  _176
REMARK   67  A    between atoms: _175  and  _178
REMARK   68  A    between atoms: _178  and  _179
REMARK   69  A    between atoms: _181  and  _183
REMARK   70  A    between atoms: _183  and  _184
REMARK   71  A    between atoms: _183  and  _186
REMARK   72  A    between atoms: _186  and  _187
REMARK   73  A    between atoms: _187  and  _188
REMARK   74  A    between atoms: _188  and  _189
REMARK   75  A    between atoms: _198  and  _200
REMARK   76  A    between atoms: _200  and  _201
REMARK   77  A    between atoms: _200  and  _203
REMARK   78  A    between atoms: _203  and  _204
REMARK   79  A    between atoms: _204  and  _205
REMARK   80  A    between atoms: _210  and  _212
REMARK   81  A    between atoms: _212  and  _213
REMARK   82  A    between atoms: _212  and  _215
REMARK   83  A    between atoms: _215  and  _216
REMARK   84  A    between atoms: _219  and  _221
REMARK   85  A    between atoms: _221  and  _222
REMARK   86  A    between atoms: _221  and  _224
REMARK   87  A    between atoms: _224  and  _225
REMARK   88  A    between atoms: _230  and  _232
REMARK   89  A    between atoms: _232  and  _233
REMARK   90  A    between atoms: _232  and  _235
REMARK   91  A    between atoms: _235  and  _236
REMARK   92  A    between atoms: _241  and  _243
REMARK   93  A    between atoms: _243  and  _244
REMARK   94  A    between atoms: _243  and  _246
REMARK   95  A    between atoms: _246  and  _247
REMARK   96  A    between atoms: _252  and  _253
REMARK   97  A    between atoms: _255  and  _257
REMARK   98  A    between atoms: _257  and  _258
REMARK   99  A    between atoms: _257  and  _260
REMARK  100  A    between atoms: _260  and  _261
REMARK  101  A    between atoms: _266  and  _268
REMARK  102  A    between atoms: _268  and  _269
REMARK  103  A    between atoms: _268  and  _271
REMARK  104  A    between atoms: _271  and  _272
REMARK  105  A    between atoms: _274  and  _276
REMARK  106  A    between atoms: _276  and  _277
REMARK  107  A    between atoms: _276  and  _279
REMARK  108  A    between atoms: _279  and  _280
REMARK  109  A    between atoms: _283  and  _285
REMARK  110  A    between atoms: _285  and  _286
REMARK  111  A    between atoms: _285  and  _288
REMARK  112  A    between atoms: _288  and  _289
REMARK  113  A    between atoms: _292  and  _294
REMARK  114  A    between atoms: _294  and  _295
REMARK  115  A    between atoms: _294  and  _297
REMARK  116  A    between atoms: _297  and  _298
REMARK  117  A    between atoms: _304  and  _306
REMARK  118  A    between atoms: _306  and  _307
REMARK  119  A    between atoms: _306  and  _309
REMARK  120  A    between atoms: _309  and  _310
REMARK                            x       y       z     vdW  Elec       q    Type
REMARK                         _______ _______ _______ _____ _____    ______ ____
ROOT
ATOM      1  CA  ILE A   2      13.931  -5.111   4.114  0.00  0.00    +0.148 C 
ENDROOT
BRANCH   1   3
ATOM      2  C   PRO A   1      12.763  -4.057   2.236  0.00  0.00    +0.239 C 
ATOM      3  N   ILE A   2      13.341  -3.958   3.433  0.00  0.00    -0.297 N 
ATOM      4  H   ILE A   2      13.374  -3.029   3.899  0.00  0.00    +0.150 HD
ATOM      5  O   PRO A   1      12.786  -5.089   1.546  0.00  0.00    -0.274 OA
BRANCH   2   7
ATOM      6  N   PRO A   1      11.479  -2.877   0.407  0.00  0.00    -0.210 NA
ATOM      7  CA  PRO A   1      12.064  -2.789   1.750  0.00  0.00    +0.149 C 
ATOM      8  CB  PRO A   1      10.840  -2.513   2.629  0.00  0.00    +0.028 C 
ATOM      9  CG  PRO A   1       9.746  -3.257   1.947  0.00  0.00    +0.021 C 
ATOM     10  CD  PRO A   1      10.030  -3.148   0.458  0.00  0.00    +0.089 C 
ENDBRANCH   2   7
ENDBRANCH   1   3
BRANCH   1  11
ATOM     11  C   ILE A   2      13.016  -6.336   3.991  0.00  0.00    +0.241 C 
ATOM     12  O   ILE A   2      11.805  -6.222   4.182  0.00  0.00    -0.273 OA
ATOM     13  N   GLY A   3      13.576  -7.487   3.613  0.00  0.00    -0.295 N 
ATOM     14  H   GLY A   3      14.596  -7.524   3.412  0.00  0.00    +0.150 HD
BRANCH  13  15
ATOM     15  CA  GLY A   3      12.771  -8.689   3.481  0.00  0.00    +0.176 C 
BRANCH  15  16
ATOM     16  C   GLY A   3      12.370  -9.044   2.067  0.00  0.00    +0.243 C 
ATOM     17  O   GLY A   3      12.063 -10.207   1.772  0.00  0.00    -0.273 OA
ATOM     18  N   GLY A   4      12.372  -8.050   1.180  0.00  0.00    -0.296 N 
ATOM     19  H   GLY A   4      12.552  -7.076   1.496  0.00  0.00    +0.150 HD
BRANCH  18  20
ATOM     20  CA  GLY A   4      12.125  -8.319  -0.225  0.00  0.00    +0.163 C 
BRANCH  20  21
ATOM     21  C   GLY A   4      10.698  -8.039  -0.650  0.00  0.00    +0.229 C 
ATOM     22  O   GLY A   4       9.934  -7.386   0.074  0.00  0.00    -0.286 OA
ENDBRANCH  20  21
ENDBRANCH  18  20
ENDBRANCH  15  16
ENDBRANCH  13  15
ENDBRANCH   1  11
BRANCH   1  23
ATOM     23  CB  ILE A   2      14.198  -4.788   5.598  0.00  0.00    +0.027 C 
ATOM     24  CG2 ILE A   2      14.514  -6.074   6.390  0.00  0.00    +0.002 C 
BRANCH  23  25
ATOM     25  CG1 ILE A   2      15.319  -3.749   5.713  0.00  0.00    +0.002 C 
ATOM     26  CD1 ILE A   2      15.368  -3.019   7.104  0.00  0.00    +0.000 C 
ENDBRANCH  23  25
ENDBRANCH   1  23
TORSDOF 9
REMARK  Name = ../refined-set-2016/4buq/4buq_pocket.pdb
REMARK  120 active torsions:
REMARK  status: ('A' for Active; 'I' for Inactive)
REMARK    1  A    between atoms: _1  and  _5
REMARK    2  A    between atoms: _5  and  _6
REMARK    3  A    between atoms: _5  and  _8
REMARK    4  A    between atoms: _8  and  _9
REMARK    5  A    between atoms: _15  and  _17
REMARK    6  A    between atoms: _17  and  _18
REMARK    7  A    between atoms: _22  and  _23
REMARK    8  A    between atoms: _28  and  _30
REMARK    9  A    between atoms: _30  and  _31
REMARK   10  A    between atoms: _30  and  _33
REMARK   11  A    between atoms: _33  and  _34
REMARK   12  A    between atoms: _37  and  _39
REMARK   13  A    between atoms: _39  and  _40
REMARK   14  A    between atoms: _42  and  _44
REMARK   15  A    between atoms: _44  and  _45
REMARK   16  A    between atoms: _47  and  _49
REMARK   17  A    between atoms: _49  and  _50
REMARK   18  A    between atoms: _49  and  _52
REMARK   19  A    between atoms: _52  and  _53
REMARK   20  A    between atoms: _58  and  _60
REMARK   21  A    between atoms: _60  and  _61
REMARK   22  A    between atoms: _60  and  _63
REMARK   23  A    between atoms: _63  and  _64
REMARK   24  A    between atoms: _69  and  _71
REMARK   25  A    between atoms: _71  and  _72
REMARK   26  A    between atoms: _71  and  _74
REMARK   27  A    between atoms: _74  and  _75
REMARK   28  A    between atoms: _78  and  _80
REMARK   29  A    between atoms: _80  and  _81
REMARK   30  A    between atoms: _80  and  _83
REMARK   31  A    between atoms: _83  and  _84
REMARK   32  A    between atoms: _89  and  _90
REMARK   33  A    between atoms: _93  and  _94
REMARK   34  A    between atoms: _99  and  _101
REMARK   35  A    between atoms: _101  and  _102
REMARK   36  A    between atoms: _101  and  _104
REMARK   37  A    between atoms: _104  and  _105
REMARK   38  A    between atoms: _105  and  _106
REMARK   39  A    between atoms: _109  and  _111
REMARK   40  A    between atoms: _111  and  _112
REMARK   41  A    between atoms: _111  and  _114
REMARK   42  A    between atoms: _114  and  _115
REMARK   43  A    between atoms: _118  and  _120
REMARK   44  A    between atoms: _120  and  _121
REMARK   45  A    between atoms: _120  and  _123
REMARK   46  A    between atoms: _123  and  _124
REMARK   47  A    between atoms: _127  and  _129
REMARK   48  A    between atoms: _129  and  _130
REMARK   49  A    between atoms: _129  and  _132
REMARK   50  A    between atoms: _132  and  _133
REMARK   51  A    between atoms: _136  and  _138
REMARK   52  A    between atoms: _138  and  _139
REMARK   53  A    between atoms: _138  and  _141
REMARK   54  A    between atoms: _141  and  _142
REMARK   55  A    between atoms: _145  and  _147
REMARK   56  A    between atoms: _147  and  _148
REMARK   57  A    between atoms: _147  and  _150
REMARK   58  A    between atoms: _150  and  _151
REMARK   59  A    between atoms: _156  and  _157
REMARK   60  A    between atoms: _159  and  _161
REMARK   61  A    between atoms: _161  and  _162
REMARK   62  A    between atoms: _161  and  _164
REMARK   63  A    between atoms: _164  and  _165
REMARK   64  A    between atoms: _170  and  _171
REMARK   65  A    between atoms: _173  and  _175
REMARK   66  A    between atoms: _175  and  _176
REMARK   67  A    between atoms: _175  and  _178
REMARK   68  A    between atoms: _178  and  _179
REMARK   69  A    between atoms: _181  and  _183
REMARK   70  A    between atoms: _183  and  _184
REMARK   71  A    between atoms: _183  and  _186
REMARK   72  A    between atoms: _186  and  _187
REMARK   73  A    between atoms: _187  and  _188
REMARK   74  A    between atoms: _188  and  _189
REMARK   75  A    between atoms: _198  and  _200
REMARK   76  A    between atoms: _200  and  _201
REMARK   77  A    between atoms: _200  and  _203
REMARK   78  A    between atoms: _203  and  _204
REMARK   79  A    between atoms: _204  and  _205
REMARK   80  A    between atoms: _210  and  _212
REMARK   81  A    between atoms: _212  and  _213
REMARK   82  A    between atoms: _212  and  _215
REMARK   83  A    between atoms: _215  and  _216
REMARK   84  A    between atoms: _219  and  _221
REMARK   85  A    between atoms: _221  and  _222
REMARK   86  A    between atoms: _221  and  _224
REMARK   87  A    between atoms: _224  and  _225
REMARK   88  A    between atoms: _230  and  _232
REMARK   89  A    between atoms: _232  and  _233
REMARK   90  A    between atoms: _232  and  _235
REMARK   91  A    between atoms: _235  and  _236
REMARK   92  A    between atoms: _241  and  _243
REMARK   93  A    between atoms: _243  and  _244
REMARK   94  A    between atoms: _243  and  _246
REMARK   95  A    between atoms: _246  and  _247
REMARK   96  A    between atoms: _252  and  _253
REMARK   97  A    between atoms: _255  and  _257
REMARK   98  A    between atoms: _257  and  _258
REMARK   99  A    between atoms: _257  and  _260
REMARK  100  A    between atoms: _260  and  _261
REMARK  101  A    between atoms: _266  and  _268
REMARK  102  A    between atoms: _268  and  _269
REMARK  103  A    between atoms: _268  and  _271
REMARK  104  A    between atoms: _271  and  _272
REMARK  105  A    between atoms: _274  and  _276
REMARK  106  A    between atoms: _276  and  _277
REMARK  107  A    between atoms: _276  and  _279
REMARK  108  A    between atoms: _279  and  _280
REMARK  109  A    between atoms: _283  and  _285
REMARK  110  A    between atoms: _285  and  _286
REMARK  111  A    between atoms: _285  and  _288
REMARK  112  A    between atoms: _288  and  _289
REMARK  113  A    between atoms: _292  and  _294
REMARK  114  A    between atoms: _294  and  _295
REMARK  115  A    between atoms: _294  and  _297
REMARK  116  A    between atoms: _297  and  _298
REMARK  117  A    between atoms: _304  and  _306
REMARK  118  A    between atoms: _306  and  _307
REMARK  119  A    between atoms: _306  and  _309
REMARK  120  A    between atoms: _309  and  _310
REMARK                            x       y       z     vdW  Elec       q    Type
REMARK                         _______ _______ _______ _____ _____    ______ ____
ROOT
ATOM      1  CA  GLU A   6      29.115  -1.322  10.669  0.00  0.00    +0.149 C 
ENDROOT
BRANCH   1   3
ATOM      2  C   PRO A   5      28.547  -2.073   8.400  0.00  0.00    +0.241 C 
ATOM      3  N   GLU A   6      28.227  -1.396   9.501  0.00  0.00    -0.297 N 
ATOM      4  H   GLU A   6      27.313  -0.901   9.535  0.00  0.00    +0.150 HD
ATOM      5  O   PRO A   5      29.654  -2.599   8.214  0.00  0.00    -0.273 OA
BRANCH   2   9
ATOM      6  C   TYR A   4      25.430  -2.526   8.628  0.00  0.00    +0.244 C 
ATOM      7  O   TYR A   4      25.890  -3.568   9.099  0.00  0.00    -0.273 OA
ATOM      8  N   PRO A   5      26.143  -1.725   7.802  0.00  0.00    -0.272 N 
ATOM      9  CA  PRO A   5      27.471  -2.153   7.322  0.00  0.00    +0.152 C 
ATOM     10  CB  PRO A   5      27.783  -1.149   6.214  0.00  0.00    +0.031 C 
ATOM     11  CG  PRO A   5      27.039   0.086   6.611  0.00  0.00    +0.024 C 
ATOM     12  CD  PRO A   5      25.767  -0.401   7.260  0.00  0.00    +0.094 C 
BRANCH   6  13
ATOM     13  CA  TYR A   4      24.000  -2.109   8.974  0.00  0.00    +0.153 C 
BRANCH  13  16
ATOM     14  C   ASP A   3      22.191  -1.058   7.699  0.00  0.00    +0.241 C 
ATOM     15  O   ASP A   3      21.923  -0.270   8.612  0.00  0.00    -0.273 OA
ATOM     16  N   TYR A   4      23.201  -1.924   7.760  0.00  0.00    -0.297 N 
ATOM     17  H   TYR A   4      23.430  -2.488   6.917  0.00  0.00    +0.150 HD
BRANCH  14  18
ATOM     18  CA  ASP A   3      21.354  -1.049   6.415  0.00  0.00    +0.160 C 
BRANCH  18  20
ATOM     19  C   ASN A   2      22.817  -1.313   4.444  0.00  0.00    +0.241 C 
ATOM     20  N   ASP A   3      21.904  -1.821   5.279  0.00  0.00    -0.297 N 
ATOM     21  H   ASP A   3      21.569  -2.793   5.124  0.00  0.00    +0.150 HD
ATOM     22  O   ASN A   2      23.272  -0.177   4.563  0.00  0.00    -0.273 OA
BRANCH  19  23
ATOM     23  CA  ASN A   2      23.271  -2.183   3.265  0.00  0.00    +0.158 C 
BRANCH  23  25
ATOM     24  C   HIS A   1      22.090  -1.371   1.276  0.00  0.00    +0.239 C 
ATOM     25  N   ASN A   2      23.147  -1.364   2.075  0.00  0.00    -0.297 N 
ATOM     26  H   ASN A   2      23.937  -0.732   1.834  0.00  0.00    +0.150 HD
ATOM     27  O   HIS A   1      21.127  -2.128   1.432  0.00  0.00    -0.274 OA
BRANCH  24  28
ATOM     28  CA  HIS A   1      22.148  -0.372   0.117  0.00  0.00    +0.151 C 
BRANCH  28  29
ATOM     29  N   HIS A   1      21.226  -0.746  -0.940  0.00  0.00    -0.238 NA
ATOM     30  H   HIS A   1      20.352  -1.256  -0.701  0.00  0.00    +0.142 HD
ENDBRANCH  28  29
BRANCH  28  31
ATOM     31  CB  HIS A   1      21.834   1.036   0.622  0.00  0.00    +0.074 C 
BRANCH  31  32
ATOM     32  CG  HIS A   1      20.603   1.103   1.469  0.00  0.00    +0.082 A 
ATOM     33  CD2 HIS A   1      20.420   0.878   2.794  0.00  0.00    +0.115 A 
ATOM     34  NE2 HIS A   1      19.083   1.054   3.050  0.00  0.00    -0.221 NA
ATOM     35  CE1 HIS A   1      18.464   1.366   1.924  0.00  0.00    +0.199 A 
ATOM     36  ND1 HIS A   1      19.358   1.396   0.951  0.00  0.00    -0.227 NA
ENDBRANCH  31  32
ENDBRANCH  28  31
ENDBRANCH  24  28
ENDBRANCH  23  25
BRANCH  23  37
ATOM     37  CB  ASN A   2      24.746  -2.589   3.386  0.00  0.00    +0.114 C 
BRANCH  37  38
ATOM     38  CG  ASN A   2      25.053  -3.421   4.630  0.00  0.00    +0.222 C 
ATOM     39  OD1 ASN A   2      24.390  -3.307   5.668  0.00  0.00    -0.275 OA
ATOM     40  ND2 ASN A   2      26.096  -4.251   4.530  0.00  0.00    -0.329 N 
ATOM     41 HD21 ASN A   2      26.378  -4.833   5.345  0.00  0.00    +0.145 HD
ATOM     42 HD22 ASN A   2      26.626  -4.315   3.637  0.00  0.00    +0.145 HD
ENDBRANCH  37  38
ENDBRANCH  23  37
ENDBRANCH  19  23
ENDBRANCH  18  20
BRANCH  18  43
ATOM     43  CB  ASP A   3      19.910  -1.474   6.754  0.00  0.00    +0.143 C 
BRANCH  43  44
ATOM     44  CG  ASP A   3      18.901  -0.957   5.730  0.00  0.00    +0.367 C 
ATOM     45  OD2 ASP A   3      18.726   0.283   5.636  0.00  0.00    -0.246 OA
ATOM     46  OD1 ASP A   3      18.307  -1.794   4.999  0.00  0.00    -0.246 OA
ENDBRANCH  43  44
ENDBRANCH  18  43
ENDBRANCH  14  18
ENDBRANCH  13  16
BRANCH  13  47
ATOM     47  CB  TYR A   4      23.351  -3.204   9.835  0.00  0.00    +0.055 C 
BRANCH  47  48
ATOM     48  CG  TYR A   4      23.722  -3.238  11.312  0.00  0.00    -0.020 A 
ATOM     49  CD2 TYR A   4      23.344  -4.311  12.115  0.00  0.00    -0.001 A 
ATOM     50  CE2 TYR A   4      23.668  -4.358  13.459  0.00  0.00    +0.036 A 
ATOM     51  CZ  TYR A   4      24.368  -3.314  14.036  0.00  0.00    +0.134 A 
ATOM     52  CE1 TYR A   4      24.749  -2.226  13.269  0.00  0.00    +0.036 A 
ATOM     53  CD1 TYR A   4      24.426  -2.200  11.906  0.00  0.00    -0.001 A 
BRANCH  51  54
ATOM     54  OH  TYR A   4      24.669  -3.364  15.378  0.00  0.00    -0.506 OA
ATOM     55  HH  TYR A   4      25.168  -2.548  15.634  0.00  0.00    +0.292 HD
ENDBRANCH  51  54
ENDBRANCH  47  48
ENDBRANCH  13  47
ENDBRANCH   6  13
ENDBRANCH   2   9
ENDBRANCH   1   3
BRANCH   1  56
ATOM     56  C   GLU A   6      29.338  -2.726  11.209  0.00  0.00    +0.241 C 
ATOM     57  O   GLU A   6      30.401  -3.058  11.750  0.00  0.00    -0.273 OA
ATOM     58  N   THR A   7      28.323  -3.558  11.047  0.00  0.00    -0.295 N 
ATOM     59  H   THR A   7      27.483  -3.244  10.520  0.00  0.00    +0.150 HD
BRANCH  58  60
ATOM     60  CA  THR A   7      28.363  -4.901  11.592  0.00  0.00    +0.176 C 
BRANCH  60  61
ATOM     61  C   THR A   7      28.226  -5.982  10.517  0.00  0.00    +0.243 C 
ATOM     62  O   THR A   7      28.936  -6.986  10.544  0.00  0.00    -0.273 OA
ATOM     63  N   ILE A   8      27.360  -5.756   9.538  0.00  0.00    -0.297 N 
ATOM     64  H   ILE A   8      26.957  -4.804   9.419  0.00  0.00    +0.150 HD
BRANCH  63  65
ATOM     65  CA  ILE A   8      26.964  -6.825   8.625  0.00  0.00    +0.149 C 
BRANCH  65  66
ATOM     66  C   ILE A   8      27.445  -6.631   7.190  0.00  0.00    +0.241 C 
ATOM     67  O   ILE A   8      27.428  -5.513   6.677  0.00  0.00    -0.273 OA
ATOM     68  N   THR A   9      27.863  -7.723   6.543  0.00  0.00    -0.295 N 
ATOM     69  H   THR A   9      27.992  -8.609   7.071  0.00  0.00    +0.150 HD
BRANCH  68  70
ATOM     70  CA  THR A   9      28.144  -7.698   5.101  0.00  0.00    +0.176 C 
BRANCH  70  71
ATOM     71  C   THR A   9      26.986  -8.329   4.311  0.00  0.00    +0.243 C 
ATOM     72  O   THR A   9      26.543  -9.431   4.641  0.00  0.00    -0.273 OA
ATOM     73  N   ASP A  10      26.476  -7.611   3.303  0.00  0.00    -0.296 N 
ATOM     74  H   ASP A  10      26.856  -6.660   3.125  0.00  0.00    +0.150 HD
BRANCH  73  75
ATOM     75  CA  ASP A  10      25.400  -8.115   2.439  0.00  0.00    +0.160 C 
BRANCH  75  76
ATOM     76  C   ASP A  10      25.921  -8.692   1.108  0.00  0.00    +0.241 C 
ATOM     77  N   TYR A  11      25.342  -9.812   0.676  0.00  0.00    -0.298 N 
ATOM     78  H   TYR A  11      24.580 -10.233   1.245  0.00  0.00    +0.150 HD
ATOM     79  O   ASP A  10      26.825  -8.126   0.487  0.00  0.00    -0.273 OA
BRANCH  77  80
ATOM     80  CA  TYR A  11      25.738 -10.470  -0.567  0.00  0.00    +0.141 C 
BRANCH  80  81
ATOM     81  C   TYR A  11      24.569 -10.530  -1.548  0.00  0.00    +0.227 C 
ATOM     82  O   TYR A  11      23.460 -10.937  -1.180  0.00  0.00    -0.286 OA
ENDBRANCH  80  81
BRANCH  80  83
ATOM     83  CB  TYR A  11      26.255 -11.888  -0.309  0.00  0.00    +0.054 C 
BRANCH  83  84
ATOM     84  CG  TYR A  11      27.455 -11.947   0.607  0.00  0.00    -0.020 A 
ATOM     85  CD2 TYR A  11      27.367 -12.530   1.871  0.00  0.00    -0.001 A 
ATOM     86  CE2 TYR A  11      28.468 -12.579   2.710  0.00  0.00    +0.036 A 
ATOM     87  CZ  TYR A  11      29.664 -12.028   2.289  0.00  0.00    +0.134 A 
ATOM     88  CE1 TYR A  11      29.774 -11.444   1.041  0.00  0.00    +0.036 A 
ATOM     89  CD1 TYR A  11      28.675 -11.405   0.214  0.00  0.00    -0.001 A 
BRANCH  87  90
ATOM     90  OH  TYR A  11      30.769 -12.061   3.103  0.00  0.00    -0.506 OA
ATOM     91  HH  TYR A  11      31.529 -11.624   2.643  0.00  0.00    +0.292 HD
ENDBRANCH  87  90
ENDBRANCH  83  84
ENDBRANCH  80  83
ENDBRANCH  77  80
ENDBRANCH  75  76
BRANCH  75  92
ATOM     92  CB  ASP A  10      24.366  -7.018   2.151  0.00  0.00    +0.143 C 
BRANCH  92  93
ATOM     93  CG  ASP A  10      23.472  -6.707   3.344  0.00  0.00    +0.367 C 
ATOM     94  OD2 ASP A  10      23.122  -7.642   4.101  0.00  0.00    -0.246 OA
ATOM     95  OD1 ASP A  10      23.096  -5.517   3.501  0.00  0.00    -0.246 OA
ENDBRANCH  92  93
ENDBRANCH  75  92
ENDBRANCH  73  75
ENDBRANCH  70  71
BRANCH  70  96
ATOM     96  CB  THR A   9      29.448  -8.447   4.754  0.00  0.00    +0.137 C 
ATOM     97  CG2 THR A   9      29.653  -8.491   3.226  0.00  0.00    +0.034 C 
BRANCH  96  98
ATOM     98  OG1 THR A   9      30.567  -7.794   5.371  0.00  0.00    -0.382 OA
ATOM     99  HG1 THR A   9      30.444  -7.790   6.353  0.00  0.00    +0.210 HD
ENDBRANCH  96  98
ENDBRANCH  70  96
ENDBRANCH  68  70
ENDBRANCH  65  66
BRANCH  65 100
ATOM    100  CB  ILE A   8      25.432  -6.938   8.582  0.00  0.00    +0.027 C 
ATOM    101  CG2 ILE A   8      24.998  -8.062   7.646  0.00  0.00    +0.002 C 
BRANCH 100 102
ATOM    102  CG1 ILE A   8      24.869  -7.162   9.988  0.00  0.00    +0.002 C 
ATOM    103  CD1 ILE A   8      23.360  -7.286   9.998  0.00  0.00    +0.000 C 
ENDBRANCH 100 102
ENDBRANCH  65 100
ENDBRANCH  63  65
ENDBRANCH  60  61
BRANCH  60 104
ATOM    104  CB  THR A   7      27.257  -5.070  12.639  0.00  0.00    +0.137 C 
ATOM    105  CG2 THR A   7      27.128  -6.525  13.077  0.00  0.00    +0.034 C 
BRANCH 104 106
ATOM    106  OG1 THR A   7      27.573  -4.263  13.779  0.00  0.00    -0.382 OA
ATOM    107  HG1 THR A   7      26.863  -4.366  14.462  0.00  0.00    +0.210 HD
ENDBRANCH 104 106
ENDBRANCH  60 104
ENDBRANCH  58  60
ENDBRANCH   1  56
BRANCH   1 108
ATOM    108  CB  GLU A   6      28.491  -0.447  11.762  0.00  0.00    +0.041 C 
BRANCH 108 109
ATOM    109  CG  GLU A   6      28.343   1.056  11.389  0.00  0.00    +0.116 C 
BRANCH 109 110
ATOM    110  CD  GLU A   6      27.078   1.382  10.598  0.00  0.00    +0.365 C 
ATOM    111  OE2 GLU A   6      26.845   2.597  10.348  0.00  0.00    -0.246 OA
ATOM    112  OE1 GLU A   6      26.300   0.451  10.261  0.00  0.00    -0.246 OA
ENDBRANCH 109 110
ENDBRANCH 108 109
ENDBRANCH   1 108
TORSDOF 44
REMARK  Name = ../refined-set-2016/4buq/4buq_pocket.pdb
REMARK  120 active torsions:
REMARK  status: ('A' for Active; 'I' for Inactive)
REMARK    1  A    between atoms: _1  and  _5
REMARK    2  A    between atoms: _5  and  _6
REMARK    3  A    between atoms: _5  and  _8
REMARK    4  A    between atoms: _8  and  _9
REMARK    5  A    between atoms: _15  and  _17
REMARK    6  A    between atoms: _17  and  _18
REMARK    7  A    between atoms: _22  and  _23
REMARK    8  A    between atoms: _28  and  _30
REMARK    9  A    between atoms: _30  and  _31
REMARK   10  A    between atoms: _30  and  _33
REMARK   11  A    between atoms: _33  and  _34
REMARK   12  A    between atoms: _37  and  _39
REMARK   13  A    between atoms: _39  and  _40
REMARK   14  A    between atoms: _42  and  _44
REMARK   15  A    between atoms: _44  and  _45
REMARK   16  A    between atoms: _47  and  _49
REMARK   17  A    between atoms: _49  and  _50
REMARK   18  A    between atoms: _49  and  _52
REMARK   19  A    between atoms: _52  and  _53
REMARK   20  A    between atoms: _58  and  _60
REMARK   21  A    between atoms: _60  and  _61
REMARK   22  A    between atoms: _60  and  _63
REMARK   23  A    between atoms: _63  and  _64
REMARK   24  A    between atoms: _69  and  _71
REMARK   25  A    between atoms: _71  and  _72
REMARK   26  A    between atoms: _71  and  _74
REMARK   27  A    between atoms: _74  and  _75
REMARK   28  A    between atoms: _78  and  _80
REMARK   29  A    between atoms: _80  and  _81
REMARK   30  A    between atoms: _80  and  _83
REMARK   31  A    between atoms: _83  and  _84
REMARK   32  A    between atoms: _89  and  _90
REMARK   33  A    between atoms: _93  and  _94
REMARK   34  A    between atoms: _99  and  _101
REMARK   35  A    between atoms: _101  and  _102
REMARK   36  A    between atoms: _101  and  _104
REMARK   37  A    between atoms: _104  and  _105
REMARK   38  A    between atoms: _105  and  _106
REMARK   39  A    between atoms: _109  and  _111
REMARK   40  A    between atoms: _111  and  _112
REMARK   41  A    between atoms: _111  and  _114
REMARK   42  A    between atoms: _114  and  _115
REMARK   43  A    between atoms: _118  and  _120
REMARK   44  A    between atoms: _120  and  _121
REMARK   45  A    between atoms: _120  and  _123
REMARK   46  A    between atoms: _123  and  _124
REMARK   47  A    between atoms: _127  and  _129
REMARK   48  A    between atoms: _129  and  _130
REMARK   49  A    between atoms: _129  and  _132
REMARK   50  A    between atoms: _132  and  _133
REMARK   51  A    between atoms: _136  and  _138
REMARK   52  A    between atoms: _138  and  _139
REMARK   53  A    between atoms: _138  and  _141
REMARK   54  A    between atoms: _141  and  _142
REMARK   55  A    between atoms: _145  and  _147
REMARK   56  A    between atoms: _147  and  _148
REMARK   57  A    between atoms: _147  and  _150
REMARK   58  A    between atoms: _150  and  _151
REMARK   59  A    between atoms: _156  and  _157
REMARK   60  A    between atoms: _159  and  _161
REMARK   61  A    between atoms: _161  and  _162
REMARK   62  A    between atoms: _161  and  _164
REMARK   63  A    between atoms: _164  and  _165
REMARK   64  A    between atoms: _170  and  _171
REMARK   65  A    between atoms: _173  and  _175
REMARK   66  A    between atoms: _175  and  _176
REMARK   67  A    between atoms: _175  and  _178
REMARK   68  A    between atoms: _178  and  _179
REMARK   69  A    between atoms: _181  and  _183
REMARK   70  A    between atoms: _183  and  _184
REMARK   71  A    between atoms: _183  and  _186
REMARK   72  A    between atoms: _186  and  _187
REMARK   73  A    between atoms: _187  and  _188
REMARK   74  A    between atoms: _188  and  _189
REMARK   75  A    between atoms: _198  and  _200
REMARK   76  A    between atoms: _200  and  _201
REMARK   77  A    between atoms: _200  and  _203
REMARK   78  A    between atoms: _203  and  _204
REMARK   79  A    between atoms: _204  and  _205
REMARK   80  A    between atoms: _210  and  _212
REMARK   81  A    between atoms: _212  and  _213
REMARK   82  A    between atoms: _212  and  _215
REMARK   83  A    between atoms: _215  and  _216
REMARK   84  A    between atoms: _219  and  _221
REMARK   85  A    between atoms: _221  and  _222
REMARK   86  A    between atoms: _221  and  _224
REMARK   87  A    between atoms: _224  and  _225
REMARK   88  A    between atoms: _230  and  _232
REMARK   89  A    between atoms: _232  and  _233
REMARK   90  A    between atoms: _232  and  _235
REMARK   91  A    between atoms: _235  and  _236
REMARK   92  A    between atoms: _241  and  _243
REMARK   93  A    between atoms: _243  and  _244
REMARK   94  A    between atoms: _243  and  _246
REMARK   95  A    between atoms: _246  and  _247
REMARK   96  A    between atoms: _252  and  _253
REMARK   97  A    between atoms: _255  and  _257
REMARK   98  A    between atoms: _257  and  _258
REMARK   99  A    between atoms: _257  and  _260
REMARK  100  A    between atoms: _260  and  _261
REMARK  101  A    between atoms: _266  and  _268
REMARK  102  A    between atoms: _268  and  _269
REMARK  103  A    between atoms: _268  and  _271
REMARK  104  A    between atoms: _271  and  _272
REMARK  105  A    between atoms: _274  and  _276
REMARK  106  A    between atoms: _276  and  _277
REMARK  107  A    between atoms: _276  and  _279
REMARK  108  A    between atoms: _279  and  _280
REMARK  109  A    between atoms: _283  and  _285
REMARK  110  A    between atoms: _285  and  _286
REMARK  111  A    between atoms: _285  and  _288
REMARK  112  A    between atoms: _288  and  _289
REMARK  113  A    between atoms: _292  and  _294
REMARK  114  A    between atoms: _294  and  _295
REMARK  115  A    between atoms: _294  and  _297
REMARK  116  A    between atoms: _297  and  _298
REMARK  117  A    between atoms: _304  and  _306
REMARK  118  A    between atoms: _306  and  _307
REMARK  119  A    between atoms: _306  and  _309
REMARK  120  A    between atoms: _309  and  _310
REMARK                            x       y       z     vdW  Elec       q    Type
REMARK                         _______ _______ _______ _____ _____    ______ ____
ROOT
ATOM      1  CG  TYR A   1      25.268  -4.190  -2.208  0.00  0.00    -0.020 A 
ATOM      2  CD2 TYR A   1      24.773  -2.970  -2.652  0.00  0.00    -0.001 A 
ATOM      3  CE2 TYR A   1      24.376  -2.791  -3.950  0.00  0.00    +0.036 A 
ATOM      4  CZ  TYR A   1      24.468  -3.843  -4.843  0.00  0.00    +0.134 A 
ATOM      5  CE1 TYR A   1      24.965  -5.062  -4.443  0.00  0.00    +0.036 A 
ATOM      6  CD1 TYR A   1      25.357  -5.234  -3.116  0.00  0.00    -0.001 A 
ENDROOT
BRANCH   4   7
ATOM      7  OH  TYR A   1      24.078  -3.641  -6.142  0.00  0.00    -0.506 OA
ATOM      8  HH  TYR A   1      24.629  -2.922  -6.543  0.00  0.00    +0.292 HD
ENDBRANCH   4   7
BRANCH   1   9
ATOM      9  CB  TYR A   1      25.699  -4.363  -0.774  0.00  0.00    +0.051 C 
BRANCH   9  10
ATOM     10  CA  TYR A   1      27.214  -4.464  -0.595  0.00  0.00    +0.137 C 
BRANCH  10  11
ATOM     11  N   TYR A   1      27.709  -5.798  -0.941  0.00  0.00    -0.239 NA
ATOM     12  H   TYR A   1      27.249  -6.636  -0.531  0.00  0.00    +0.142 HD
ENDBRANCH  10  11
BRANCH  10  13
ATOM     13  C   TYR A   1      27.594  -4.095   0.843  0.00  0.00    +0.224 C 
ATOM     14  O   TYR A   1      27.044  -4.638   1.803  0.00  0.00    -0.287 OA
ENDBRANCH  10  13
ENDBRANCH   9  10
ENDBRANCH   1   9
TORSDOF 5
REMARK  Name = ../refined-set-2016/4buq/4buq_pocket.pdb
REMARK  120 active torsions:
REMARK  status: ('A' for Active; 'I' for Inactive)
REMARK    1  A    between atoms: _1  and  _5
REMARK    2  A    between atoms: _5  and  _6
REMARK    3  A    between atoms: _5  and  _8
REMARK    4  A    between atoms: _8  and  _9
REMARK    5  A    between atoms: _15  and  _17
REMARK    6  A    between atoms: _17  and  _18
REMARK    7  A    between atoms: _22  and  _23
REMARK    8  A    between atoms: _28  and  _30
REMARK    9  A    between atoms: _30  and  _31
REMARK   10  A    between atoms: _30  and  _33
REMARK   11  A    between atoms: _33  and  _34
REMARK   12  A    between atoms: _37  and  _39
REMARK   13  A    between atoms: _39  and  _40
REMARK   14  A    between atoms: _42  and  _44
REMARK   15  A    between atoms: _44  and  _45
REMARK   16  A    between atoms: _47  and  _49
REMARK   17  A    between atoms: _49  and  _50
REMARK   18  A    between atoms: _49  and  _52
REMARK   19  A    between atoms: _52  and  _53
REMARK   20  A    between atoms: _58  and  _60
REMARK   21  A    between atoms: _60  and  _61
REMARK   22  A    between atoms: _60  and  _63
REMARK   23  A    between atoms: _63  and  _64
REMARK   24  A    between atoms: _69  and  _71
REMARK   25  A    between atoms: _71  and  _72
REMARK   26  A    between atoms: _71  and  _74
REMARK   27  A    between atoms: _74  and  _75
REMARK   28  A    between atoms: _78  and  _80
REMARK   29  A    between atoms: _80  and  _81
REMARK   30  A    between atoms: _80  and  _83
REMARK   31  A    between atoms: _83  and  _84
REMARK   32  A    between atoms: _89  and  _90
REMARK   33  A    between atoms: _93  and  _94
REMARK   34  A    between atoms: _99  and  _101
REMARK   35  A    between atoms: _101  and  _102
REMARK   36  A    between atoms: _101  and  _104
REMARK   37  A    between atoms: _104  and  _105
REMARK   38  A    between atoms: _105  and  _106
REMARK   39  A    between atoms: _109  and  _111
REMARK   40  A    between atoms: _111  and  _112
REMARK   41  A    between atoms: _111  and  _114
REMARK   42  A    between atoms: _114  and  _115
REMARK   43  A    between atoms: _118  and  _120
REMARK   44  A    between atoms: _120  and  _121
REMARK   45  A    between atoms: _120  and  _123
REMARK   46  A    between atoms: _123  and  _124
REMARK   47  A    between atoms: _127  and  _129
REMARK   48  A    between atoms: _129  and  _130
REMARK   49  A    between atoms: _129  and  _132
REMARK   50  A    between atoms: _132  and  _133
REMARK   51  A    between atoms: _136  and  _138
REMARK   52  A    between atoms: _138  and  _139
REMARK   53  A    between atoms: _138  and  _141
REMARK   54  A    between atoms: _141  and  _142
REMARK   55  A    between atoms: _145  and  _147
REMARK   56  A    between atoms: _147  and  _148
REMARK   57  A    between atoms: _147  and  _150
REMARK   58  A    between atoms: _150  and  _151
REMARK   59  A    between atoms: _156  and  _157
REMARK   60  A    between atoms: _159  and  _161
REMARK   61  A    between atoms: _161  and  _162
REMARK   62  A    between atoms: _161  and  _164
REMARK   63  A    between atoms: _164  and  _165
REMARK   64  A    between atoms: _170  and  _171
REMARK   65  A    between atoms: _173  and  _175
REMARK   66  A    between atoms: _175  and  _176
REMARK   67  A    between atoms: _175  and  _178
REMARK   68  A    between atoms: _178  and  _179
REMARK   69  A    between atoms: _181  and  _183
REMARK   70  A    between atoms: _183  and  _184
REMARK   71  A    between atoms: _183  and  _186
REMARK   72  A    between atoms: _186  and  _187
REMARK   73  A    between atoms: _187  and  _188
REMARK   74  A    between atoms: _188  and  _189
REMARK   75  A    between atoms: _198  and  _200
REMARK   76  A    between atoms: _200  and  _201
REMARK   77  A    between atoms: _200  and  _203
REMARK   78  A    between atoms: _203  and  _204
REMARK   79  A    between atoms: _204  and  _205
REMARK   80  A    between atoms: _210  and  _212
REMARK   81  A    between atoms: _212  and  _213
REMARK   82  A    between atoms: _212  and  _215
REMARK   83  A    between atoms: _215  and  _216
REMARK   84  A    between atoms: _219  and  _221
REMARK   85  A    between atoms: _221  and  _222
REMARK   86  A    between atoms: _221  and  _224
REMARK   87  A    between atoms: _224  and  _225
REMARK   88  A    between atoms: _230  and  _232
REMARK   89  A    between atoms: _232  and  _233
REMARK   90  A    between atoms: _232  and  _235
REMARK   91  A    between atoms: _235  and  _236
REMARK   92  A    between atoms: _241  and  _243
REMARK   93  A    between atoms: _243  and  _244
REMARK   94  A    between atoms: _243  and  _246
REMARK   95  A    between atoms: _246  and  _247
REMARK   96  A    between atoms: _252  and  _253
REMARK   97  A    between atoms: _255  and  _257
REMARK   98  A    between atoms: _257  and  _258
REMARK   99  A    between atoms: _257  and  _260
REMARK  100  A    between atoms: _260  and  _261
REMARK  101  A    between atoms: _266  and  _268
REMARK  102  A    between atoms: _268  and  _269
REMARK  103  A    between atoms: _268  and  _271
REMARK  104  A    between atoms: _271  and  _272
REMARK  105  A    between atoms: _274  and  _276
REMARK  106  A    between atoms: _276  and  _277
REMARK  107  A    between atoms: _276  and  _279
REMARK  108  A    between atoms: _279  and  _280
REMARK  109  A    between atoms: _283  and  _285
REMARK  110  A    between atoms: _285  and  _286
REMARK  111  A    between atoms: _285  and  _288
REMARK  112  A    between atoms: _288  and  _289
REMARK  113  A    between atoms: _292  and  _294
REMARK  114  A    between atoms: _294  and  _295
REMARK  115  A    between atoms: _294  and  _297
REMARK  116  A    between atoms: _297  and  _298
REMARK  117  A    between atoms: _304  and  _306
REMARK  118  A    between atoms: _306  and  _307
REMARK  119  A    between atoms: _306  and  _309
REMARK  120  A    between atoms: _309  and  _310
REMARK                            x       y       z     vdW  Elec       q    Type
REMARK                         _______ _______ _______ _____ _____    ______ ____
ROOT
ATOM      1  CA  ARG A   2      24.501   2.567   3.371  0.00  0.00    +0.137 C 
ENDROOT
BRANCH   1   3
ATOM      2  C   SER A   1      26.098   1.063   2.279  0.00  0.00    +0.241 C 
ATOM      3  N   ARG A   2      25.852   2.074   3.109  0.00  0.00    -0.298 N 
ATOM      4  H   ARG A   2      26.653   2.531   3.590  0.00  0.00    +0.150 HD
ATOM      5  O   SER A   1      25.214   0.458   1.660  0.00  0.00    -0.274 OA
BRANCH   2   6
ATOM      6  CA  SER A   1      27.566   0.702   2.099  0.00  0.00    +0.174 C 
BRANCH   6   7
ATOM      7  N   SER A   1      27.801  -0.729   1.998  0.00  0.00    -0.236 NA
ATOM      8  H   SER A   1      27.115  -1.326   1.494  0.00  0.00    +0.142 HD
ENDBRANCH   6   7
BRANCH   6   9
ATOM      9  CB  SER A   1      28.110   1.401   0.855  0.00  0.00    +0.163 C 
BRANCH   9  10
ATOM     10  OG  SER A   1      27.688   2.751   0.860  0.00  0.00    -0.380 OA
ATOM     11  H   SER A   1      28.039   3.208   0.055  0.00  0.00    +0.211 HD
ENDBRANCH   9  10
ENDBRANCH   6   9
ENDBRANCH   2   6
ENDBRANCH   1   3
BRANCH   1  12
ATOM     12  C   ARG A   2      24.035   3.561   2.308  0.00  0.00    +0.227 C 
ATOM     13  O   ARG A   2      22.837   3.770   2.124  0.00  0.00    -0.286 OA
ENDBRANCH   1  12
BRANCH   1  14
ATOM     14  CB  ARG A   2      24.445   3.208   4.774  0.00  0.00    +0.031 C 
BRANCH  14  15
ATOM     15  CG  ARG A   2      23.058   3.628   5.242  0.00  0.00    +0.045 C 
BRANCH  15  16
ATOM     16  CD  ARG A   2      23.089   4.143   6.705  0.00  0.00    +0.174 C 
BRANCH  16  17
ATOM     17  NE  ARG A   2      23.070   3.061   7.687  0.00  0.00    -0.265 N 
ATOM     18  CZ  ARG A   2      24.101   2.710   8.457  0.00  0.00    +0.342 C 
ATOM     19  NH2 ARG A   2      23.974   1.711   9.332  0.00  0.00    -0.292 N 
ATOM     20 HH21 ARG A   2      24.779   1.439   9.931  0.00  0.00    +0.255 HD
ATOM     21 HH22 ARG A   2      23.070   1.204   9.415  0.00  0.00    +0.255 HD
ATOM     22  NH1 ARG A   2      25.259   3.357   8.356  0.00  0.00    -0.292 N 
ATOM     23 HH11 ARG A   2      26.062   3.082   8.957  0.00  0.00    +0.255 HD
ATOM     24 HH12 ARG A   2      25.361   4.137   7.676  0.00  0.00    +0.255 HD
ATOM     25  HE  ARG A   2      22.186   2.524   7.794  0.00  0.00    +0.259 HD
ENDBRANCH  16  17
ENDBRANCH  15  16
ENDBRANCH  14  15
ENDBRANCH   1  14
TORSDOF 10
REMARK  Name = ../refined-set-2016/4buq/4buq_pocket.pdb
REMARK  120 active torsions:
REMARK  status: ('A' for Active; 'I' for Inactive)
REMARK    1  A    between atoms: _1  and  _5
REMARK    2  A    between atoms: _5  and  _6
REMARK    3  A    between atoms: _5  and  _8
REMARK    4  A    between atoms: _8  and  _9
REMARK    5  A    between atoms: _15  and  _17
REMARK    6  A    between atoms: _17  and  _18
REMARK    7  A    between atoms: _22  and  _23
REMARK    8  A    between atoms: _28  and  _30
REMARK    9  A    between atoms: _30  and  _31
REMARK   10  A    between atoms: _30  and  _33
REMARK   11  A    between atoms: _33  and  _34
REMARK   12  A    between atoms: _37  and  _39
REMARK   13  A    between atoms: _39  and  _40
REMARK   14  A    between atoms: _42  and  _44
REMARK   15  A    between atoms: _44  and  _45
REMARK   16  A    between atoms: _47  and  _49
REMARK   17  A    between atoms: _49  and  _50
REMARK   18  A    between atoms: _49  and  _52
REMARK   19  A    between atoms: _52  and  _53
REMARK   20  A    between atoms: _58  and  _60
REMARK   21  A    between atoms: _60  and  _61
REMARK   22  A    between atoms: _60  and  _63
REMARK   23  A    between atoms: _63  and  _64
REMARK   24  A    between atoms: _69  and  _71
REMARK   25  A    between atoms: _71  and  _72
REMARK   26  A    between atoms: _71  and  _74
REMARK   27  A    between atoms: _74  and  _75
REMARK   28  A    between atoms: _78  and  _80
REMARK   29  A    between atoms: _80  and  _81
REMARK   30  A    between atoms: _80  and  _83
REMARK   31  A    between atoms: _83  and  _84
REMARK   32  A    between atoms: _89  and  _90
REMARK   33  A    between atoms: _93  and  _94
REMARK   34  A    between atoms: _99  and  _101
REMARK   35  A    between atoms: _101  and  _102
REMARK   36  A    between atoms: _101  and  _104
REMARK   37  A    between atoms: _104  and  _105
REMARK   38  A    between atoms: _105  and  _106
REMARK   39  A    between atoms: _109  and  _111
REMARK   40  A    between atoms: _111  and  _112
REMARK   41  A    between atoms: _111  and  _114
REMARK   42  A    between atoms: _114  and  _115
REMARK   43  A    between atoms: _118  and  _120
REMARK   44  A    between atoms: _120  and  _121
REMARK   45  A    between atoms: _120  and  _123
REMARK   46  A    between atoms: _123  and  _124
REMARK   47  A    between atoms: _127  and  _129
REMARK   48  A    between atoms: _129  and  _130
REMARK   49  A    between atoms: _129  and  _132
REMARK   50  A    between atoms: _132  and  _133
REMARK   51  A    between atoms: _136  and  _138
REMARK   52  A    between atoms: _138  and  _139
REMARK   53  A    between atoms: _138  and  _141
REMARK   54  A    between atoms: _141  and  _142
REMARK   55  A    between atoms: _145  and  _147
REMARK   56  A    between atoms: _147  and  _148
REMARK   57  A    between atoms: _147  and  _150
REMARK   58  A    between atoms: _150  and  _151
REMARK   59  A    between atoms: _156  and  _157
REMARK   60  A    between atoms: _159  and  _161
REMARK   61  A    between atoms: _161  and  _162
REMARK   62  A    between atoms: _161  and  _164
REMARK   63  A    between atoms: _164  and  _165
REMARK   64  A    between atoms: _170  and  _171
REMARK   65  A    between atoms: _173  and  _175
REMARK   66  A    between atoms: _175  and  _176
REMARK   67  A    between atoms: _175  and  _178
REMARK   68  A    between atoms: _178  and  _179
REMARK   69  A    between atoms: _181  and  _183
REMARK   70  A    between atoms: _183  and  _184
REMARK   71  A    between atoms: _183  and  _186
REMARK   72  A    between atoms: _186  and  _187
REMARK   73  A    between atoms: _187  and  _188
REMARK   74  A    between atoms: _188  and  _189
REMARK   75  A    between atoms: _198  and  _200
REMARK   76  A    between atoms: _200  and  _201
REMARK   77  A    between atoms: _200  and  _203
REMARK   78  A    between atoms: _203  and  _204
REMARK   79  A    between atoms: _204  and  _205
REMARK   80  A    between atoms: _210  and  _212
REMARK   81  A    between atoms: _212  and  _213
REMARK   82  A    between atoms: _212  and  _215
REMARK   83  A    between atoms: _215  and  _216
REMARK   84  A    between atoms: _219  and  _221
REMARK   85  A    between atoms: _221  and  _222
REMARK   86  A    between atoms: _221  and  _224
REMARK   87  A    between atoms: _224  and  _225
REMARK   88  A    between atoms: _230  and  _232
REMARK   89  A    between atoms: _232  and  _233
REMARK   90  A    between atoms: _232  and  _235
REMARK   91  A    between atoms: _235  and  _236
REMARK   92  A    between atoms: _241  and  _243
REMARK   93  A    between atoms: _243  and  _244
REMARK   94  A    between atoms: _243  and  _246
REMARK   95  A    between atoms: _246  and  _247
REMARK   96  A    between atoms: _252  and  _253
REMARK   97  A    between atoms: _255  and  _257
REMARK   98  A    between atoms: _257  and  _258
REMARK   99  A    between atoms: _257  and  _260
REMARK  100  A    between atoms: _260  and  _261
REMARK  101  A    between atoms: _266  and  _268
REMARK  102  A    between atoms: _268  and  _269
REMARK  103  A    between atoms: _268  and  _271
REMARK  104  A    between atoms: _271  and  _272
REMARK  105  A    between atoms: _274  and  _276
REMARK  106  A    between atoms: _276  and  _277
REMARK  107  A    between atoms: _276  and  _279
REMARK  108  A    between atoms: _279  and  _280
REMARK  109  A    between atoms: _283  and  _285
REMARK  110  A    between atoms: _285  and  _286
REMARK  111  A    between atoms: _285  and  _288
REMARK  112  A    between atoms: _288  and  _289
REMARK  113  A    between atoms: _292  and  _294
REMARK  114  A    between atoms: _294  and  _295
REMARK  115  A    between atoms: _294  and  _297
REMARK  116  A    between atoms: _297  and  _298
REMARK  117  A    between atoms: _304  and  _306
REMARK  118  A    between atoms: _306  and  _307
REMARK  119  A    between atoms: _306  and  _309
REMARK  120  A    between atoms: _309  and  _310
REMARK                            x       y       z     vdW  Elec       q    Type
REMARK                         _______ _______ _______ _____ _____    ______ ____
ROOT
ATOM      1  CA  TYR A   5      25.190 -12.485   9.831  0.00  0.00    +0.153 C 
ENDROOT
BRANCH   1   2
ATOM      2  C   TYR A   5      24.143 -13.483  10.332  0.00  0.00    +0.241 C 
ATOM      3  O   TYR A   5      24.206 -13.933  11.476  0.00  0.00    -0.273 OA
ATOM      4  N   ASN A   6      23.160 -13.789   9.491  0.00  0.00    -0.297 N 
ATOM      5  H   ASN A   6      23.128 -13.325   8.561  0.00  0.00    +0.150 HD
BRANCH   4   6
ATOM      6  CA  ASN A   6      22.125 -14.757   9.835  0.00  0.00    +0.158 C 
BRANCH   6   7
ATOM      7  C   ASN A   6      21.646 -15.563   8.639  0.00  0.00    +0.241 C 
ATOM      8  N   SER A   7      20.395 -15.994   8.730  0.00  0.00    -0.295 N 
ATOM      9  H   SER A   7      19.814 -15.665   9.528  0.00  0.00    +0.150 HD
ATOM     10  O   ASN A   6      22.368 -15.750   7.659  0.00  0.00    -0.273 OA
BRANCH   8  11
ATOM     11  CA  SER A   7      19.798 -16.903   7.770  0.00  0.00    +0.178 C 
BRANCH  11  12
ATOM     12  C   SER A   7      18.936 -16.203   6.722  0.00  0.00    +0.243 C 
ATOM     13  N   ASP A   8      18.956 -14.873   6.729  0.00  0.00    -0.296 N 
ATOM     14  H   ASP A   8      19.536 -14.377   7.435  0.00  0.00    +0.150 HD
ATOM     15  O   SER A   7      18.286 -16.864   5.908  0.00  0.00    -0.273 OA
BRANCH  13  16
ATOM     16  CA  ASP A   8      18.184 -14.096   5.770  0.00  0.00    +0.160 C 
BRANCH  16  17
ATOM     17  C   ASP A   8      18.502 -14.541   4.347  0.00  0.00    +0.241 C 
ATOM     18  O   ASP A   8      19.661 -14.773   3.994  0.00  0.00    -0.273 OA
ATOM     19  N   ASP A   9      17.452 -14.707   3.556  0.00  0.00    -0.297 N 
ATOM     20  H   ASP A   9      16.501 -14.565   3.952  0.00  0.00    +0.150 HD
BRANCH  19  21
ATOM     21  CA  ASP A   9      17.577 -15.080   2.155  0.00  0.00    +0.160 C 
BRANCH  21  22
ATOM     22  C   ASP A   9      16.368 -14.473   1.465  0.00  0.00    +0.241 C 
ATOM     23  O   ASP A   9      15.278 -15.039   1.538  0.00  0.00    -0.273 OA
ATOM     24  N   PHE A  10      16.548 -13.318   0.820  0.00  0.00    -0.298 N 
ATOM     25  H   PHE A  10      17.515 -12.969   0.664  0.00  0.00    +0.150 HD
BRANCH  24  26
ATOM     26  CA  PHE A  10      15.412 -12.529   0.325  0.00  0.00    +0.141 C 
BRANCH  26  27
ATOM     27  C   PHE A  10      15.437 -12.305  -1.175  0.00  0.00    +0.227 C 
ATOM     28  O   PHE A  10      16.504 -12.202  -1.793  0.00  0.00    -0.286 OA
ENDBRANCH  26  27
BRANCH  26  29
ATOM     29  CB  PHE A  10      15.322 -11.180   1.055  0.00  0.00    +0.054 C 
BRANCH  29  30
ATOM     30  CG  PHE A  10      15.145 -11.317   2.551  0.00  0.00    -0.020 A 
ATOM     31  CD2 PHE A  10      15.905 -10.558   3.428  0.00  0.00    -0.004 A 
ATOM     32  CE2 PHE A  10      15.743 -10.679   4.792  0.00  0.00    -0.000 A 
ATOM     33  CZ  PHE A  10      14.820 -11.594   5.299  0.00  0.00    -0.000 A 
ATOM     34  CE1 PHE A  10      14.058 -12.364   4.433  0.00  0.00    -0.000 A 
ATOM     35  CD1 PHE A  10      14.224 -12.222   3.072  0.00  0.00    -0.004 A 
ENDBRANCH  29  30
ENDBRANCH  26  29
ENDBRANCH  24  26
ENDBRANCH  21  22
BRANCH  21  36
ATOM     36  CB  ASP A   9      17.546 -16.601   2.022  0.00  0.00    +0.143 C 
BRANCH  36  37
ATOM     37  CG  ASP A   9      18.068 -17.084   0.679  0.00  0.00    +0.367 C 
ATOM     38  OD2 ASP A   9      18.378 -18.289   0.553  0.00  0.00    -0.246 OA
ATOM     39  OD1 ASP A   9      18.138 -16.266  -0.259  0.00  0.00    -0.246 OA
ENDBRANCH  36  37
ENDBRANCH  21  36
ENDBRANCH  19  21
ENDBRANCH  16  17
BRANCH  16  40
ATOM     40  CB  ASP A   8      18.443 -12.590   5.916  0.00  0.00    +0.143 C 
BRANCH  40  41
ATOM     41  CG  ASP A   8      17.882 -12.025   7.211  0.00  0.00    +0.367 C 
ATOM     42  OD2 ASP A   8      17.209 -12.783   7.938  0.00  0.00    -0.246 OA
ATOM     43  OD1 ASP A   8      18.101 -10.823   7.500  0.00  0.00    -0.246 OA
ENDBRANCH  40  41
ENDBRANCH  16  40
ENDBRANCH  13  16
ENDBRANCH  11  12
BRANCH  11  44
ATOM     44  CB  SER A   7      18.961 -17.935   8.529  0.00  0.00    +0.166 C 
BRANCH  44  45
ATOM     45  OG  SER A   7      19.785 -18.629   9.445  0.00  0.00    -0.380 OA
ATOM     46  H   SER A   7      19.242 -19.296   9.935  0.00  0.00    +0.211 HD
ENDBRANCH  44  45
ENDBRANCH  11  44
ENDBRANCH   8  11
ENDBRANCH   6   7
BRANCH   6  47
ATOM     47  CB  ASN A   6      20.933 -14.074  10.520  0.00  0.00    +0.114 C 
BRANCH  47  48
ATOM     48  CG  ASN A   6      20.218 -13.065   9.615  0.00  0.00    +0.222 C 
ATOM     49  ND2 ASN A   6      19.461 -12.157  10.234  0.00  0.00    -0.329 N 
ATOM     50 HD21 ASN A   6      19.368 -12.176  11.270  0.00  0.00    +0.145 HD
ATOM     51 HD22 ASN A   6      18.964 -11.430   9.681  0.00  0.00    +0.145 HD
ATOM     52  OD1 ASN A   6      20.360 -13.084   8.387  0.00  0.00    -0.275 OA
ENDBRANCH  47  48
ENDBRANCH   6  47
ENDBRANCH   4   6
ENDBRANCH   1   2
BRANCH   1  55
ATOM     53  C   ASN A   4      26.938 -12.978   8.190  0.00  0.00    +0.241 C 
ATOM     54  O   ASN A   4      27.793 -13.179   9.061  0.00  0.00    -0.273 OA
ATOM     55  N   TYR A   5      25.650 -12.781   8.472  0.00  0.00    -0.297 N 
ATOM     56  H   TYR A   5      24.951 -12.839   7.704  0.00  0.00    +0.150 HD
BRANCH  53  57
ATOM     57  CA  ASN A   4      27.318 -12.976   6.709  0.00  0.00    +0.158 C 
BRANCH  57  59
ATOM     58  C   ASN A   3      25.422 -12.727   5.223  0.00  0.00    +0.241 C 
ATOM     59  N   ASN A   4      26.409 -12.163   5.912  0.00  0.00    -0.297 N 
ATOM     60  H   ASN A   4      26.534 -11.131   5.882  0.00  0.00    +0.150 HD
ATOM     61  O   ASN A   3      25.242 -13.939   5.189  0.00  0.00    -0.273 OA
BRANCH  58  62
ATOM     62  CA  ASN A   3      24.481 -11.792   4.482  0.00  0.00    +0.158 C 
BRANCH  62  64
ATOM     63  C   THR A   2      22.986 -12.004   2.599  0.00  0.00    +0.243 C 
ATOM     64  N   ASN A   3      23.466 -12.515   3.731  0.00  0.00    -0.297 N 
ATOM     65  H   ASN A   3      23.116 -13.431   4.078  0.00  0.00    +0.150 HD
ATOM     66  O   THR A   2      23.336 -10.902   2.153  0.00  0.00    -0.273 OA
BRANCH  63  67
ATOM     67  CA  THR A   2      21.978 -12.844   1.848  0.00  0.00    +0.176 C 
BRANCH  67  70
ATOM     68  C   GLN A   1      20.378 -11.965   0.228  0.00  0.00    +0.238 C 
ATOM     69  O   GLN A   1      19.414 -12.474   0.802  0.00  0.00    -0.274 OA
ATOM     70  N   THR A   2      21.633 -12.129   0.634  0.00  0.00    -0.295 N 
ATOM     71  H   THR A   2      22.400 -11.728   0.057  0.00  0.00    +0.150 HD
BRANCH  68  72
ATOM     72  CA  GLN A   1      20.180 -11.085  -1.011  0.00  0.00    +0.145 C 
BRANCH  72  73
ATOM     73  N   GLN A   1      19.347 -11.703  -2.053  0.00  0.00    -0.238 NA
ATOM     74  H   GLN A   1      18.391 -12.027  -1.801  0.00  0.00    +0.142 HD
ENDBRANCH  72  73
BRANCH  72  75
ATOM     75  CB  GLN A   1      19.601  -9.729  -0.578  0.00  0.00    +0.036 C 
BRANCH  75  76
ATOM     76  CG  GLN A   1      20.376  -9.047   0.560  0.00  0.00    +0.087 C 
BRANCH  76  77
ATOM     77  CD  GLN A   1      19.595  -8.974   1.852  0.00  0.00    +0.219 C 
ATOM     78  NE2 GLN A   1      20.313  -9.025   2.976  0.00  0.00    -0.329 N 
ATOM     79 HE21 GLN A   1      19.837  -8.981   3.900  0.00  0.00    +0.145 HD
ATOM     80 HE22 GLN A   1      21.349  -9.108   2.928  0.00  0.00    +0.145 HD
ATOM     81  OE1 GLN A   1      18.361  -8.875   1.852  0.00  0.00    -0.275 OA
ENDBRANCH  76  77
ENDBRANCH  75  76
ENDBRANCH  72  75
ENDBRANCH  68  72
ENDBRANCH  67  70
BRANCH  67  82
ATOM     82  CB  THR A   2      22.584 -14.247   1.561  0.00  0.00    +0.137 C 
ATOM     83  CG2 THR A   2      21.525 -15.192   0.983  0.00  0.00    +0.034 C 
BRANCH  82  84
ATOM     84  OG1 THR A   2      23.672 -14.120   0.633  0.00  0.00    -0.382 OA
ATOM     85  HG1 THR A   2      23.339 -13.725  -0.212  0.00  0.00    +0.210 HD
ENDBRANCH  82  84
ENDBRANCH  67  82
ENDBRANCH  63  67
ENDBRANCH  62  64
BRANCH  62  86
ATOM     86  CB  ASN A   3      23.829 -10.804   5.448  0.00  0.00    +0.114 C 
BRANCH  86  87
ATOM     87  CG  ASN A   3      22.931 -11.490   6.470  0.00  0.00    +0.222 C 
ATOM     88  OD1 ASN A   3      23.309 -12.495   7.075  0.00  0.00    -0.275 OA
ATOM     89  ND2 ASN A   3      21.737 -10.949   6.667  0.00  0.00    -0.329 N 
ATOM     90 HD21 ASN A   3      21.081 -11.373   7.353  0.00  0.00    +0.145 HD
ATOM     91 HD22 ASN A   3      21.457 -10.100   6.136  0.00  0.00    +0.145 HD
ENDBRANCH  86  87
ENDBRANCH  62  86
ENDBRANCH  58  62
ENDBRANCH  57  59
BRANCH  57  92
ATOM     92  CB  ASN A   4      28.761 -12.484   6.551  0.00  0.00    +0.114 C 
BRANCH  92  93
ATOM     93  CG  ASN A   4      28.997 -11.114   7.199  0.00  0.00    +0.222 C 
ATOM     94  OD1 ASN A   4      28.057 -10.392   7.551  0.00  0.00    -0.275 OA
ATOM     95  ND2 ASN A   4      30.265 -10.760   7.362  0.00  0.00    -0.329 N 
ATOM     96 HD21 ASN A   4      30.497  -9.846   7.800  0.00  0.00    +0.145 HD
ATOM     97 HD22 ASN A   4      31.027 -11.397   7.052  0.00  0.00    +0.145 HD
ENDBRANCH  92  93
ENDBRANCH  57  92
ENDBRANCH  53  57
ENDBRANCH   1  55
BRANCH   1  98
ATOM     98  CB  TYR A   5      24.615 -11.071   9.873  0.00  0.00    +0.055 C 
BRANCH  98  99
ATOM     99  CG  TYR A   5      24.019 -10.655  11.206  0.00  0.00    -0.020 A 
ATOM    100  CD2 TYR A   5      24.836 -10.200  12.238  0.00  0.00    -0.001 A 
ATOM    101  CE2 TYR A   5      24.310  -9.804  13.446  0.00  0.00    +0.036 A 
ATOM    102  CZ  TYR A   5      22.945  -9.844  13.638  0.00  0.00    +0.134 A 
ATOM    103  CE1 TYR A   5      22.109 -10.287  12.627  0.00  0.00    +0.036 A 
ATOM    104  CD1 TYR A   5      22.647 -10.683  11.422  0.00  0.00    -0.001 A 
BRANCH 102 105
ATOM    105  OH  TYR A   5      22.425  -9.435  14.852  0.00  0.00    -0.506 OA
ATOM    106  HH  TYR A   5      23.164  -9.154  15.448  0.00  0.00    +0.292 HD
ENDBRANCH 102 105
ENDBRANCH  98  99
ENDBRANCH   1  98
TORSDOF 42
REMARK  Name = ../refined-set-2016/4buq/4buq_pocket.pdb
REMARK  120 active torsions:
REMARK  status: ('A' for Active; 'I' for Inactive)
REMARK    1  A    between atoms: _1  and  _5
REMARK    2  A    between atoms: _5  and  _6
REMARK    3  A    between atoms: _5  and  _8
REMARK    4  A    between atoms: _8  and  _9
REMARK    5  A    between atoms: _15  and  _17
REMARK    6  A    between atoms: _17  and  _18
REMARK    7  A    between atoms: _22  and  _23
REMARK    8  A    between atoms: _28  and  _30
REMARK    9  A    between atoms: _30  and  _31
REMARK   10  A    between atoms: _30  and  _33
REMARK   11  A    between atoms: _33  and  _34
REMARK   12  A    between atoms: _37  and  _39
REMARK   13  A    between atoms: _39  and  _40
REMARK   14  A    between atoms: _42  and  _44
REMARK   15  A    between atoms: _44  and  _45
REMARK   16  A    between atoms: _47  and  _49
REMARK   17  A    between atoms: _49  and  _50
REMARK   18  A    between atoms: _49  and  _52
REMARK   19  A    between atoms: _52  and  _53
REMARK   20  A    between atoms: _58  and  _60
REMARK   21  A    between atoms: _60  and  _61
REMARK   22  A    between atoms: _60  and  _63
REMARK   23  A    between atoms: _63  and  _64
REMARK   24  A    between atoms: _69  and  _71
REMARK   25  A    between atoms: _71  and  _72
REMARK   26  A    between atoms: _71  and  _74
REMARK   27  A    between atoms: _74  and  _75
REMARK   28  A    between atoms: _78  and  _80
REMARK   29  A    between atoms: _80  and  _81
REMARK   30  A    between atoms: _80  and  _83
REMARK   31  A    between atoms: _83  and  _84
REMARK   32  A    between atoms: _89  and  _90
REMARK   33  A    between atoms: _93  and  _94
REMARK   34  A    between atoms: _99  and  _101
REMARK   35  A    between atoms: _101  and  _102
REMARK   36  A    between atoms: _101  and  _104
REMARK   37  A    between atoms: _104  and  _105
REMARK   38  A    between atoms: _105  and  _106
REMARK   39  A    between atoms: _109  and  _111
REMARK   40  A    between atoms: _111  and  _112
REMARK   41  A    between atoms: _111  and  _114
REMARK   42  A    between atoms: _114  and  _115
REMARK   43  A    between atoms: _118  and  _120
REMARK   44  A    between atoms: _120  and  _121
REMARK   45  A    between atoms: _120  and  _123
REMARK   46  A    between atoms: _123  and  _124
REMARK   47  A    between atoms: _127  and  _129
REMARK   48  A    between atoms: _129  and  _130
REMARK   49  A    between atoms: _129  and  _132
REMARK   50  A    between atoms: _132  and  _133
REMARK   51  A    between atoms: _136  and  _138
REMARK   52  A    between atoms: _138  and  _139
REMARK   53  A    between atoms: _138  and  _141
REMARK   54  A    between atoms: _141  and  _142
REMARK   55  A    between atoms: _145  and  _147
REMARK   56  A    between atoms: _147  and  _148
REMARK   57  A    between atoms: _147  and  _150
REMARK   58  A    between atoms: _150  and  _151
REMARK   59  A    between atoms: _156  and  _157
REMARK   60  A    between atoms: _159  and  _161
REMARK   61  A    between atoms: _161  and  _162
REMARK   62  A    between atoms: _161  and  _164
REMARK   63  A    between atoms: _164  and  _165
REMARK   64  A    between atoms: _170  and  _171
REMARK   65  A    between atoms: _173  and  _175
REMARK   66  A    between atoms: _175  and  _176
REMARK   67  A    between atoms: _175  and  _178
REMARK   68  A    between atoms: _178  and  _179
REMARK   69  A    between atoms: _181  and  _183
REMARK   70  A    between atoms: _183  and  _184
REMARK   71  A    between atoms: _183  and  _186
REMARK   72  A    between atoms: _186  and  _187
REMARK   73  A    between atoms: _187  and  _188
REMARK   74  A    between atoms: _188  and  _189
REMARK   75  A    between atoms: _198  and  _200
REMARK   76  A    between atoms: _200  and  _201
REMARK   77  A    between atoms: _200  and  _203
REMARK   78  A    between atoms: _203  and  _204
REMARK   79  A    between atoms: _204  and  _205
REMARK   80  A    between atoms: _210  and  _212
REMARK   81  A    between atoms: _212  and  _213
REMARK   82  A    between atoms: _212  and  _215
REMARK   83  A    between atoms: _215  and  _216
REMARK   84  A    between atoms: _219  and  _221
REMARK   85  A    between atoms: _221  and  _222
REMARK   86  A    between atoms: _221  and  _224
REMARK   87  A    between atoms: _224  and  _225
REMARK   88  A    between atoms: _230  and  _232
REMARK   89  A    between atoms: _232  and  _233
REMARK   90  A    between atoms: _232  and  _235
REMARK   91  A    between atoms: _235  and  _236
REMARK   92  A    between atoms: _241  and  _243
REMARK   93  A    between atoms: _243  and  _244
REMARK   94  A    between atoms: _243  and  _246
REMARK   95  A    between atoms: _246  and  _247
REMARK   96  A    between atoms: _252  and  _253
REMARK   97  A    between atoms: _255  and  _257
REMARK   98  A    between atoms: _257  and  _258
REMARK   99  A    between atoms: _257  and  _260
REMARK  100  A    between atoms: _260  and  _261
REMARK  101  A    between atoms: _266  and  _268
REMARK  102  A    between atoms: _268  and  _269
REMARK  103  A    between atoms: _268  and  _271
REMARK  104  A    between atoms: _271  and  _272
REMARK  105  A    between atoms: _274  and  _276
REMARK  106  A    between atoms: _276  and  _277
REMARK  107  A    between atoms: _276  and  _279
REMARK  108  A    between atoms: _279  and  _280
REMARK  109  A    between atoms: _283  and  _285
REMARK  110  A    between atoms: _285  and  _286
REMARK  111  A    between atoms: _285  and  _288
REMARK  112  A    between atoms: _288  and  _289
REMARK  113  A    between atoms: _292  and  _294
REMARK  114  A    between atoms: _294  and  _295
REMARK  115  A    between atoms: _294  and  _297
REMARK  116  A    between atoms: _297  and  _298
REMARK  117  A    between atoms: _304  and  _306
REMARK  118  A    between atoms: _306  and  _307
REMARK  119  A    between atoms: _306  and  _309
REMARK  120  A    between atoms: _309  and  _310
REMARK                            x       y       z     vdW  Elec       q    Type
REMARK                         _______ _______ _______ _____ _____    ______ ____
ROOT
ATOM      1  CB  PHE A   1      14.712  -7.504  -4.558  0.00  0.00    +0.051 C 
ENDROOT
BRANCH   1   2
ATOM      2  CG  PHE A   1      15.004  -7.230  -3.110  0.00  0.00    -0.020 A 
ATOM      3  CD2 PHE A   1      15.643  -8.174  -2.320  0.00  0.00    -0.004 A 
ATOM      4  CE2 PHE A   1      15.905  -7.918  -0.976  0.00  0.00    -0.000 A 
ATOM      5  CZ  PHE A   1      15.529  -6.713  -0.412  0.00  0.00    -0.000 A 
ATOM      6  CE1 PHE A   1      14.889  -5.762  -1.194  0.00  0.00    -0.000 A 
ATOM      7  CD1 PHE A   1      14.634  -6.023  -2.534  0.00  0.00    -0.004 A 
ENDBRANCH   1   2
BRANCH   1   8
ATOM      8  CA  PHE A   1      13.653  -8.588  -4.777  0.00  0.00    +0.137 C 
BRANCH   8   9
ATOM      9  N   PHE A   1      14.138  -9.878  -4.312  0.00  0.00    -0.239 NA
ATOM     10  H   PHE A   1      15.040 -10.228  -4.693  0.00  0.00    +0.142 HD
ENDBRANCH   8   9
BRANCH   8  11
ATOM     11  C   PHE A   1      13.317  -8.742  -6.257  0.00  0.00    +0.224 C 
ATOM     12  O   PHE A   1      14.209  -8.944  -7.087  0.00  0.00    -0.287 OA
ENDBRANCH   8  11
ENDBRANCH   1   8
TORSDOF 4
REMARK  Name = ../refined-set-2016/4buq/4buq_pocket.pdb
REMARK  120 active torsions:
REMARK  status: ('A' for Active; 'I' for Inactive)
REMARK    1  A    between atoms: _1  and  _5
REMARK    2  A    between atoms: _5  and  _6
REMARK    3  A    between atoms: _5  and  _8
REMARK    4  A    between atoms: _8  and  _9
REMARK    5  A    between atoms: _15  and  _17
REMARK    6  A    between atoms: _17  and  _18
REMARK    7  A    between atoms: _22  and  _23
REMARK    8  A    between atoms: _28  and  _30
REMARK    9  A    between atoms: _30  and  _31
REMARK   10  A    between atoms: _30  and  _33
REMARK   11  A    between atoms: _33  and  _34
REMARK   12  A    between atoms: _37  and  _39
REMARK   13  A    between atoms: _39  and  _40
REMARK   14  A    between atoms: _42  and  _44
REMARK   15  A    between atoms: _44  and  _45
REMARK   16  A    between atoms: _47  and  _49
REMARK   17  A    between atoms: _49  and  _50
REMARK   18  A    between atoms: _49  and  _52
REMARK   19  A    between atoms: _52  and  _53
REMARK   20  A    between atoms: _58  and  _60
REMARK   21  A    between atoms: _60  and  _61
REMARK   22  A    between atoms: _60  and  _63
REMARK   23  A    between atoms: _63  and  _64
REMARK   24  A    between atoms: _69  and  _71
REMARK   25  A    between atoms: _71  and  _72
REMARK   26  A    between atoms: _71  and  _74
REMARK   27  A    between atoms: _74  and  _75
REMARK   28  A    between atoms: _78  and  _80
REMARK   29  A    between atoms: _80  and  _81
REMARK   30  A    between atoms: _80  and  _83
REMARK   31  A    between atoms: _83  and  _84
REMARK   32  A    between atoms: _89  and  _90
REMARK   33  A    between atoms: _93  and  _94
REMARK   34  A    between atoms: _99  and  _101
REMARK   35  A    between atoms: _101  and  _102
REMARK   36  A    between atoms: _101  and  _104
REMARK   37  A    between atoms: _104  and  _105
REMARK   38  A    between atoms: _105  and  _106
REMARK   39  A    between atoms: _109  and  _111
REMARK   40  A    between atoms: _111  and  _112
REMARK   41  A    between atoms: _111  and  _114
REMARK   42  A    between atoms: _114  and  _115
REMARK   43  A    between atoms: _118  and  _120
REMARK   44  A    between atoms: _120  and  _121
REMARK   45  A    between atoms: _120  and  _123
REMARK   46  A    between atoms: _123  and  _124
REMARK   47  A    between atoms: _127  and  _129
REMARK   48  A    between atoms: _129  and  _130
REMARK   49  A    between atoms: _129  and  _132
REMARK   50  A    between atoms: _132  and  _133
REMARK   51  A    between atoms: _136  and  _138
REMARK   52  A    between atoms: _138  and  _139
REMARK   53  A    between atoms: _138  and  _141
REMARK   54  A    between atoms: _141  and  _142
REMARK   55  A    between atoms: _145  and  _147
REMARK   56  A    between atoms: _147  and  _148
REMARK   57  A    between atoms: _147  and  _150
REMARK   58  A    between atoms: _150  and  _151
REMARK   59  A    between atoms: _156  and  _157
REMARK   60  A    between atoms: _159  and  _161
REMARK   61  A    between atoms: _161  and  _162
REMARK   62  A    between atoms: _161  and  _164
REMARK   63  A    between atoms: _164  and  _165
REMARK   64  A    between atoms: _170  and  _171
REMARK   65  A    between atoms: _173  and  _175
REMARK   66  A    between atoms: _175  and  _176
REMARK   67  A    between atoms: _175  and  _178
REMARK   68  A    between atoms: _178  and  _179
REMARK   69  A    between atoms: _181  and  _183
REMARK   70  A    between atoms: _183  and  _184
REMARK   71  A    between atoms: _183  and  _186
REMARK   72  A    between atoms: _186  and  _187
REMARK   73  A    between atoms: _187  and  _188
REMARK   74  A    between atoms: _188  and  _189
REMARK   75  A    between atoms: _198  and  _200
REMARK   76  A    between atoms: _200  and  _201
REMARK   77  A    between atoms: _200  and  _203
REMARK   78  A    between atoms: _203  and  _204
REMARK   79  A    between atoms: _204  and  _205
REMARK   80  A    between atoms: _210  and  _212
REMARK   81  A    between atoms: _212  and  _213
REMARK   82  A    between atoms: _212  and  _215
REMARK   83  A    between atoms: _215  and  _216
REMARK   84  A    between atoms: _219  and  _221
REMARK   85  A    between atoms: _221  and  _222
REMARK   86  A    between atoms: _221  and  _224
REMARK   87  A    between atoms: _224  and  _225
REMARK   88  A    between atoms: _230  and  _232
REMARK   89  A    between atoms: _232  and  _233
REMARK   90  A    between atoms: _232  and  _235
REMARK   91  A    between atoms: _235  and  _236
REMARK   92  A    between atoms: _241  and  _243
REMARK   93  A    between atoms: _243  and  _244
REMARK   94  A    between atoms: _243  and  _246
REMARK   95  A    between atoms: _246  and  _247
REMARK   96  A    between atoms: _252  and  _253
REMARK   97  A    between atoms: _255  and  _257
REMARK   98  A    between atoms: _257  and  _258
REMARK   99  A    between atoms: _257  and  _260
REMARK  100  A    between atoms: _260  and  _261
REMARK  101  A    between atoms: _266  and  _268
REMARK  102  A    between atoms: _268  and  _269
REMARK  103  A    between atoms: _268  and  _271
REMARK  104  A    between atoms: _271  and  _272
REMARK  105  A    between atoms: _274  and  _276
REMARK  106  A    between atoms: _276  and  _277
REMARK  107  A    between atoms: _276  and  _279
REMARK  108  A    between atoms: _279  and  _280
REMARK  109  A    between atoms: _283  and  _285
REMARK  110  A    between atoms: _285  and  _286
REMARK  111  A    between atoms: _285  and  _288
REMARK  112  A    between atoms: _288  and  _289
REMARK  113  A    between atoms: _292  and  _294
REMARK  114  A    between atoms: _294  and  _295
REMARK  115  A    between atoms: _294  and  _297
REMARK  116  A    between atoms: _297  and  _298
REMARK  117  A    between atoms: _304  and  _306
REMARK  118  A    between atoms: _306  and  _307
REMARK  119  A    between atoms: _306  and  _309
REMARK  120  A    between atoms: _309  and  _310
REMARK                            x       y       z     vdW  Elec       q    Type
REMARK                         _______ _______ _______ _____ _____    ______ ____
ROOT
ATOM      1  O   HOH     1      16.702  -7.311   3.115  0.00  0.00    +0.000 OA
ENDROOT
TORSDOF 0
REMARK  Name = ../refined-set-2016/4buq/4buq_pocket.pdb
REMARK  120 active torsions:
REMARK  status: ('A' for Active; 'I' for Inactive)
REMARK    1  A    between atoms: _1  and  _5
REMARK    2  A    between atoms: _5  and  _6
REMARK    3  A    between atoms: _5  and  _8
REMARK    4  A    between atoms: _8  and  _9
REMARK    5  A    between atoms: _15  and  _17
REMARK    6  A    between atoms: _17  and  _18
REMARK    7  A    between atoms: _22  and  _23
REMARK    8  A    between atoms: _28  and  _30
REMARK    9  A    between atoms: _30  and  _31
REMARK   10  A    between atoms: _30  and  _33
REMARK   11  A    between atoms: _33  and  _34
REMARK   12  A    between atoms: _37  and  _39
REMARK   13  A    between atoms: _39  and  _40
REMARK   14  A    between atoms: _42  and  _44
REMARK   15  A    between atoms: _44  and  _45
REMARK   16  A    between atoms: _47  and  _49
REMARK   17  A    between atoms: _49  and  _50
REMARK   18  A    between atoms: _49  and  _52
REMARK   19  A    between atoms: _52  and  _53
REMARK   20  A    between atoms: _58  and  _60
REMARK   21  A    between atoms: _60  and  _61
REMARK   22  A    between atoms: _60  and  _63
REMARK   23  A    between atoms: _63  and  _64
REMARK   24  A    between atoms: _69  and  _71
REMARK   25  A    between atoms: _71  and  _72
REMARK   26  A    between atoms: _71  and  _74
REMARK   27  A    between atoms: _74  and  _75
REMARK   28  A    between atoms: _78  and  _80
REMARK   29  A    between atoms: _80  and  _81
REMARK   30  A    between atoms: _80  and  _83
REMARK   31  A    between atoms: _83  and  _84
REMARK   32  A    between atoms: _89  and  _90
REMARK   33  A    between atoms: _93  and  _94
REMARK   34  A    between atoms: _99  and  _101
REMARK   35  A    between atoms: _101  and  _102
REMARK   36  A    between atoms: _101  and  _104
REMARK   37  A    between atoms: _104  and  _105
REMARK   38  A    between atoms: _105  and  _106
REMARK   39  A    between atoms: _109  and  _111
REMARK   40  A    between atoms: _111  and  _112
REMARK   41  A    between atoms: _111  and  _114
REMARK   42  A    between atoms: _114  and  _115
REMARK   43  A    between atoms: _118  and  _120
REMARK   44  A    between atoms: _120  and  _121
REMARK   45  A    between atoms: _120  and  _123
REMARK   46  A    between atoms: _123  and  _124
REMARK   47  A    between atoms: _127  and  _129
REMARK   48  A    between atoms: _129  and  _130
REMARK   49  A    between atoms: _129  and  _132
REMARK   50  A    between atoms: _132  and  _133
REMARK   51  A    between atoms: _136  and  _138
REMARK   52  A    between atoms: _138  and  _139
REMARK   53  A    between atoms: _138  and  _141
REMARK   54  A    between atoms: _141  and  _142
REMARK   55  A    between atoms: _145  and  _147
REMARK   56  A    between atoms: _147  and  _148
REMARK   57  A    between atoms: _147  and  _150
REMARK   58  A    between atoms: _150  and  _151
REMARK   59  A    between atoms: _156  and  _157
REMARK   60  A    between atoms: _159  and  _161
REMARK   61  A    between atoms: _161  and  _162
REMARK   62  A    between atoms: _161  and  _164
REMARK   63  A    between atoms: _164  and  _165
REMARK   64  A    between atoms: _170  and  _171
REMARK   65  A    between atoms: _173  and  _175
REMARK   66  A    between atoms: _175  and  _176
REMARK   67  A    between atoms: _175  and  _178
REMARK   68  A    between atoms: _178  and  _179
REMARK   69  A    between atoms: _181  and  _183
REMARK   70  A    between atoms: _183  and  _184
REMARK   71  A    between atoms: _183  and  _186
REMARK   72  A    between atoms: _186  and  _187
REMARK   73  A    between atoms: _187  and  _188
REMARK   74  A    between atoms: _188  and  _189
REMARK   75  A    between atoms: _198  and  _200
REMARK   76  A    between atoms: _200  and  _201
REMARK   77  A    between atoms: _200  and  _203
REMARK   78  A    between atoms: _203  and  _204
REMARK   79  A    between atoms: _204  and  _205
REMARK   80  A    between atoms: _210  and  _212
REMARK   81  A    between atoms: _212  and  _213
REMARK   82  A    between atoms: _212  and  _215
REMARK   83  A    between atoms: _215  and  _216
REMARK   84  A    between atoms: _219  and  _221
REMARK   85  A    between atoms: _221  and  _222
REMARK   86  A    between atoms: _221  and  _224
REMARK   87  A    between atoms: _224  and  _225
REMARK   88  A    between atoms: _230  and  _232
REMARK   89  A    between atoms: _232  and  _233
REMARK   90  A    between atoms: _232  and  _235
REMARK   91  A    between atoms: _235  and  _236
REMARK   92  A    between atoms: _241  and  _243
REMARK   93  A    between atoms: _243  and  _244
REMARK   94  A    between atoms: _243  and  _246
REMARK   95  A    between atoms: _246  and  _247
REMARK   96  A    between atoms: _252  and  _253
REMARK   97  A    between atoms: _255  and  _257
REMARK   98  A    between atoms: _257  and  _258
REMARK   99  A    between atoms: _257  and  _260
REMARK  100  A    between atoms: _260  and  _261
REMARK  101  A    between atoms: _266  and  _268
REMARK  102  A    between atoms: _268  and  _269
REMARK  103  A    between atoms: _268  and  _271
REMARK  104  A    between atoms: _271  and  _272
REMARK  105  A    between atoms: _274  and  _276
REMARK  106  A    between atoms: _276  and  _277
REMARK  107  A    between atoms: _276  and  _279
REMARK  108  A    between atoms: _279  and  _280
REMARK  109  A    between atoms: _283  and  _285
REMARK  110  A    between atoms: _285  and  _286
REMARK  111  A    between atoms: _285  and  _288
REMARK  112  A    between atoms: _288  and  _289
REMARK  113  A    between atoms: _292  and  _294
REMARK  114  A    between atoms: _294  and  _295
REMARK  115  A    between atoms: _294  and  _297
REMARK  116  A    between atoms: _297  and  _298
REMARK  117  A    between atoms: _304  and  _306
REMARK  118  A    between atoms: _306  and  _307
REMARK  119  A    between atoms: _306  and  _309
REMARK  120  A    between atoms: _309  and  _310
REMARK                            x       y       z     vdW  Elec       q    Type
REMARK                         _______ _______ _______ _____ _____    ______ ____
ROOT
ATOM      1  O   HOH     1      13.486  -1.307   4.542  0.00  0.00    +0.000 OA
ENDROOT
TORSDOF 0
REMARK  Name = ../refined-set-2016/4buq/4buq_pocket.pdb
REMARK  120 active torsions:
REMARK  status: ('A' for Active; 'I' for Inactive)
REMARK    1  A    between atoms: _1  and  _5
REMARK    2  A    between atoms: _5  and  _6
REMARK    3  A    between atoms: _5  and  _8
REMARK    4  A    between atoms: _8  and  _9
REMARK    5  A    between atoms: _15  and  _17
REMARK    6  A    between atoms: _17  and  _18
REMARK    7  A    between atoms: _22  and  _23
REMARK    8  A    between atoms: _28  and  _30
REMARK    9  A    between atoms: _30  and  _31
REMARK   10  A    between atoms: _30  and  _33
REMARK   11  A    between atoms: _33  and  _34
REMARK   12  A    between atoms: _37  and  _39
REMARK   13  A    between atoms: _39  and  _40
REMARK   14  A    between atoms: _42  and  _44
REMARK   15  A    between atoms: _44  and  _45
REMARK   16  A    between atoms: _47  and  _49
REMARK   17  A    between atoms: _49  and  _50
REMARK   18  A    between atoms: _49  and  _52
REMARK   19  A    between atoms: _52  and  _53
REMARK   20  A    between atoms: _58  and  _60
REMARK   21  A    between atoms: _60  and  _61
REMARK   22  A    between atoms: _60  and  _63
REMARK   23  A    between atoms: _63  and  _64
REMARK   24  A    between atoms: _69  and  _71
REMARK   25  A    between atoms: _71  and  _72
REMARK   26  A    between atoms: _71  and  _74
REMARK   27  A    between atoms: _74  and  _75
REMARK   28  A    between atoms: _78  and  _80
REMARK   29  A    between atoms: _80  and  _81
REMARK   30  A    between atoms: _80  and  _83
REMARK   31  A    between atoms: _83  and  _84
REMARK   32  A    between atoms: _89  and  _90
REMARK   33  A    between atoms: _93  and  _94
REMARK   34  A    between atoms: _99  and  _101
REMARK   35  A    between atoms: _101  and  _102
REMARK   36  A    between atoms: _101  and  _104
REMARK   37  A    between atoms: _104  and  _105
REMARK   38  A    between atoms: _105  and  _106
REMARK   39  A    between atoms: _109  and  _111
REMARK   40  A    between atoms: _111  and  _112
REMARK   41  A    between atoms: _111  and  _114
REMARK   42  A    between atoms: _114  and  _115
REMARK   43  A    between atoms: _118  and  _120
REMARK   44  A    between atoms: _120  and  _121
REMARK   45  A    between atoms: _120  and  _123
REMARK   46  A    between atoms: _123  and  _124
REMARK   47  A    between atoms: _127  and  _129
REMARK   48  A    between atoms: _129  and  _130
REMARK   49  A    between atoms: _129  and  _132
REMARK   50  A    between atoms: _132  and  _133
REMARK   51  A    between atoms: _136  and  _138
REMARK   52  A    between atoms: _138  and  _139
REMARK   53  A    between atoms: _138  and  _141
REMARK   54  A    between atoms: _141  and  _142
REMARK   55  A    between atoms: _145  and  _147
REMARK   56  A    between atoms: _147  and  _148
REMARK   57  A    between atoms: _147  and  _150
REMARK   58  A    between atoms: _150  and  _151
REMARK   59  A    between atoms: _156  and  _157
REMARK   60  A    between atoms: _159  and  _161
REMARK   61  A    between atoms: _161  and  _162
REMARK   62  A    between atoms: _161  and  _164
REMARK   63  A    between atoms: _164  and  _165
REMARK   64  A    between atoms: _170  and  _171
REMARK   65  A    between atoms: _173  and  _175
REMARK   66  A    between atoms: _175  and  _176
REMARK   67  A    between atoms: _175  and  _178
REMARK   68  A    between atoms: _178  and  _179
REMARK   69  A    between atoms: _181  and  _183
REMARK   70  A    between atoms: _183  and  _184
REMARK   71  A    between atoms: _183  and  _186
REMARK   72  A    between atoms: _186  and  _187
REMARK   73  A    between atoms: _187  and  _188
REMARK   74  A    between atoms: _188  and  _189
REMARK   75  A    between atoms: _198  and  _200
REMARK   76  A    between atoms: _200  and  _201
REMARK   77  A    between atoms: _200  and  _203
REMARK   78  A    between atoms: _203  and  _204
REMARK   79  A    between atoms: _204  and  _205
REMARK   80  A    between atoms: _210  and  _212
REMARK   81  A    between atoms: _212  and  _213
REMARK   82  A    between atoms: _212  and  _215
REMARK   83  A    between atoms: _215  and  _216
REMARK   84  A    between atoms: _219  and  _221
REMARK   85  A    between atoms: _221  and  _222
REMARK   86  A    between atoms: _221  and  _224
REMARK   87  A    between atoms: _224  and  _225
REMARK   88  A    between atoms: _230  and  _232
REMARK   89  A    between atoms: _232  and  _233
REMARK   90  A    between atoms: _232  and  _235
REMARK   91  A    between atoms: _235  and  _236
REMARK   92  A    between atoms: _241  and  _243
REMARK   93  A    between atoms: _243  and  _244
REMARK   94  A    between atoms: _243  and  _246
REMARK   95  A    between atoms: _246  and  _247
REMARK   96  A    between atoms: _252  and  _253
REMARK   97  A    between atoms: _255  and  _257
REMARK   98  A    between atoms: _257  and  _258
REMARK   99  A    between atoms: _257  and  _260
REMARK  100  A    between atoms: _260  and  _261
REMARK  101  A    between atoms: _266  and  _268
REMARK  102  A    between atoms: _268  and  _269
REMARK  103  A    between atoms: _268  and  _271
REMARK  104  A    between atoms: _271  and  _272
REMARK  105  A    between atoms: _274  and  _276
REMARK  106  A    between atoms: _276  and  _277
REMARK  107  A    between atoms: _276  and  _279
REMARK  108  A    between atoms: _279  and  _280
REMARK  109  A    between atoms: _283  and  _285
REMARK  110  A    between atoms: _285  and  _286
REMARK  111  A    between atoms: _285  and  _288
REMARK  112  A    between atoms: _288  and  _289
REMARK  113  A    between atoms: _292  and  _294
REMARK  114  A    between atoms: _294  and  _295
REMARK  115  A    between atoms: _294  and  _297
REMARK  116  A    between atoms: _297  and  _298
REMARK  117  A    between atoms: _304  and  _306
REMARK  118  A    between atoms: _306  and  _307
REMARK  119  A    between atoms: _306  and  _309
REMARK  120  A    between atoms: _309  and  _310
REMARK                            x       y       z     vdW  Elec       q    Type
REMARK                         _______ _______ _______ _____ _____    ______ ____
ROOT
ATOM      1  O   HOH     1      20.371   2.289   7.186  0.00  0.00    +0.000 OA
ENDROOT
TORSDOF 0
REMARK  Name = ../refined-set-2016/4buq/4buq_pocket.pdb
REMARK  120 active torsions:
REMARK  status: ('A' for Active; 'I' for Inactive)
REMARK    1  A    between atoms: _1  and  _5
REMARK    2  A    between atoms: _5  and  _6
REMARK    3  A    between atoms: _5  and  _8
REMARK    4  A    between atoms: _8  and  _9
REMARK    5  A    between atoms: _15  and  _17
REMARK    6  A    between atoms: _17  and  _18
REMARK    7  A    between atoms: _22  and  _23
REMARK    8  A    between atoms: _28  and  _30
REMARK    9  A    between atoms: _30  and  _31
REMARK   10  A    between atoms: _30  and  _33
REMARK   11  A    between atoms: _33  and  _34
REMARK   12  A    between atoms: _37  and  _39
REMARK   13  A    between atoms: _39  and  _40
REMARK   14  A    between atoms: _42  and  _44
REMARK   15  A    between atoms: _44  and  _45
REMARK   16  A    between atoms: _47  and  _49
REMARK   17  A    between atoms: _49  and  _50
REMARK   18  A    between atoms: _49  and  _52
REMARK   19  A    between atoms: _52  and  _53
REMARK   20  A    between atoms: _58  and  _60
REMARK   21  A    between atoms: _60  and  _61
REMARK   22  A    between atoms: _60  and  _63
REMARK   23  A    between atoms: _63  and  _64
REMARK   24  A    between atoms: _69  and  _71
REMARK   25  A    between atoms: _71  and  _72
REMARK   26  A    between atoms: _71  and  _74
REMARK   27  A    between atoms: _74  and  _75
REMARK   28  A    between atoms: _78  and  _80
REMARK   29  A    between atoms: _80  and  _81
REMARK   30  A    between atoms: _80  and  _83
REMARK   31  A    between atoms: _83  and  _84
REMARK   32  A    between atoms: _89  and  _90
REMARK   33  A    between atoms: _93  and  _94
REMARK   34  A    between atoms: _99  and  _101
REMARK   35  A    between atoms: _101  and  _102
REMARK   36  A    between atoms: _101  and  _104
REMARK   37  A    between atoms: _104  and  _105
REMARK   38  A    between atoms: _105  and  _106
REMARK   39  A    between atoms: _109  and  _111
REMARK   40  A    between atoms: _111  and  _112
REMARK   41  A    between atoms: _111  and  _114
REMARK   42  A    between atoms: _114  and  _115
REMARK   43  A    between atoms: _118  and  _120
REMARK   44  A    between atoms: _120  and  _121
REMARK   45  A    between atoms: _120  and  _123
REMARK   46  A    between atoms: _123  and  _124
REMARK   47  A    between atoms: _127  and  _129
REMARK   48  A    between atoms: _129  and  _130
REMARK   49  A    between atoms: _129  and  _132
REMARK   50  A    between atoms: _132  and  _133
REMARK   51  A    between atoms: _136  and  _138
REMARK   52  A    between atoms: _138  and  _139
REMARK   53  A    between atoms: _138  and  _141
REMARK   54  A    between atoms: _141  and  _142
REMARK   55  A    between atoms: _145  and  _147
REMARK   56  A    between atoms: _147  and  _148
REMARK   57  A    between atoms: _147  and  _150
REMARK   58  A    between atoms: _150  and  _151
REMARK   59  A    between atoms: _156  and  _157
REMARK   60  A    between atoms: _159  and  _161
REMARK   61  A    between atoms: _161  and  _162
REMARK   62  A    between atoms: _161  and  _164
REMARK   63  A    between atoms: _164  and  _165
REMARK   64  A    between atoms: _170  and  _171
REMARK   65  A    between atoms: _173  and  _175
REMARK   66  A    between atoms: _175  and  _176
REMARK   67  A    between atoms: _175  and  _178
REMARK   68  A    between atoms: _178  and  _179
REMARK   69  A    between atoms: _181  and  _183
REMARK   70  A    between atoms: _183  and  _184
REMARK   71  A    between atoms: _183  and  _186
REMARK   72  A    between atoms: _186  and  _187
REMARK   73  A    between atoms: _187  and  _188
REMARK   74  A    between atoms: _188  and  _189
REMARK   75  A    between atoms: _198  and  _200
REMARK   76  A    between atoms: _200  and  _201
REMARK   77  A    between atoms: _200  and  _203
REMARK   78  A    between atoms: _203  and  _204
REMARK   79  A    between atoms: _204  and  _205
REMARK   80  A    between atoms: _210  and  _212
REMARK   81  A    between atoms: _212  and  _213
REMARK   82  A    between atoms: _212  and  _215
REMARK   83  A    between atoms: _215  and  _216
REMARK   84  A    between atoms: _219  and  _221
REMARK   85  A    between atoms: _221  and  _222
REMARK   86  A    between atoms: _221  and  _224
REMARK   87  A    between atoms: _224  and  _225
REMARK   88  A    between atoms: _230  and  _232
REMARK   89  A    between atoms: _232  and  _233
REMARK   90  A    between atoms: _232  and  _235
REMARK   91  A    between atoms: _235  and  _236
REMARK   92  A    between atoms: _241  and  _243
REMARK   93  A    between atoms: _243  and  _244
REMARK   94  A    between atoms: _243  and  _246
REMARK   95  A    between atoms: _246  and  _247
REMARK   96  A    between atoms: _252  and  _253
REMARK   97  A    between atoms: _255  and  _257
REMARK   98  A    between atoms: _257  and  _258
REMARK   99  A    between atoms: _257  and  _260
REMARK  100  A    between atoms: _260  and  _261
REMARK  101  A    between atoms: _266  and  _268
REMARK  102  A    between atoms: _268  and  _269
REMARK  103  A    between atoms: _268  and  _271
REMARK  104  A    between atoms: _271  and  _272
REMARK  105  A    between atoms: _274  and  _276
REMARK  106  A    between atoms: _276  and  _277
REMARK  107  A    between atoms: _276  and  _279
REMARK  108  A    between atoms: _279  and  _280
REMARK  109  A    between atoms: _283  and  _285
REMARK  110  A    between atoms: _285  and  _286
REMARK  111  A    between atoms: _285  and  _288
REMARK  112  A    between atoms: _288  and  _289
REMARK  113  A    between atoms: _292  and  _294
REMARK  114  A    between atoms: _294  and  _295
REMARK  115  A    between atoms: _294  and  _297
REMARK  116  A    between atoms: _297  and  _298
REMARK  117  A    between atoms: _304  and  _306
REMARK  118  A    between atoms: _306  and  _307
REMARK  119  A    between atoms: _306  and  _309
REMARK  120  A    between atoms: _309  and  _310
REMARK                            x       y       z     vdW  Elec       q    Type
REMARK                         _______ _______ _______ _____ _____    ______ ____
ROOT
ATOM      1  O   HOH     1      15.863  -0.173   4.528  0.00  0.00    +0.000 OA
ENDROOT
TORSDOF 0
REMARK  Name = ../refined-set-2016/4buq/4buq_pocket.pdb
REMARK  120 active torsions:
REMARK  status: ('A' for Active; 'I' for Inactive)
REMARK    1  A    between atoms: _1  and  _5
REMARK    2  A    between atoms: _5  and  _6
REMARK    3  A    between atoms: _5  and  _8
REMARK    4  A    between atoms: _8  and  _9
REMARK    5  A    between atoms: _15  and  _17
REMARK    6  A    between atoms: _17  and  _18
REMARK    7  A    between atoms: _22  and  _23
REMARK    8  A    between atoms: _28  and  _30
REMARK    9  A    between atoms: _30  and  _31
REMARK   10  A    between atoms: _30  and  _33
REMARK   11  A    between atoms: _33  and  _34
REMARK   12  A    between atoms: _37  and  _39
REMARK   13  A    between atoms: _39  and  _40
REMARK   14  A    between atoms: _42  and  _44
REMARK   15  A    between atoms: _44  and  _45
REMARK   16  A    between atoms: _47  and  _49
REMARK   17  A    between atoms: _49  and  _50
REMARK   18  A    between atoms: _49  and  _52
REMARK   19  A    between atoms: _52  and  _53
REMARK   20  A    between atoms: _58  and  _60
REMARK   21  A    between atoms: _60  and  _61
REMARK   22  A    between atoms: _60  and  _63
REMARK   23  A    between atoms: _63  and  _64
REMARK   24  A    between atoms: _69  and  _71
REMARK   25  A    between atoms: _71  and  _72
REMARK   26  A    between atoms: _71  and  _74
REMARK   27  A    between atoms: _74  and  _75
REMARK   28  A    between atoms: _78  and  _80
REMARK   29  A    between atoms: _80  and  _81
REMARK   30  A    between atoms: _80  and  _83
REMARK   31  A    between atoms: _83  and  _84
REMARK   32  A    between atoms: _89  and  _90
REMARK   33  A    between atoms: _93  and  _94
REMARK   34  A    between atoms: _99  and  _101
REMARK   35  A    between atoms: _101  and  _102
REMARK   36  A    between atoms: _101  and  _104
REMARK   37  A    between atoms: _104  and  _105
REMARK   38  A    between atoms: _105  and  _106
REMARK   39  A    between atoms: _109  and  _111
REMARK   40  A    between atoms: _111  and  _112
REMARK   41  A    between atoms: _111  and  _114
REMARK   42  A    between atoms: _114  and  _115
REMARK   43  A    between atoms: _118  and  _120
REMARK   44  A    between atoms: _120  and  _121
REMARK   45  A    between atoms: _120  and  _123
REMARK   46  A    between atoms: _123  and  _124
REMARK   47  A    between atoms: _127  and  _129
REMARK   48  A    between atoms: _129  and  _130
REMARK   49  A    between atoms: _129  and  _132
REMARK   50  A    between atoms: _132  and  _133
REMARK   51  A    between atoms: _136  and  _138
REMARK   52  A    between atoms: _138  and  _139
REMARK   53  A    between atoms: _138  and  _141
REMARK   54  A    between atoms: _141  and  _142
REMARK   55  A    between atoms: _145  and  _147
REMARK   56  A    between atoms: _147  and  _148
REMARK   57  A    between atoms: _147  and  _150
REMARK   58  A    between atoms: _150  and  _151
REMARK   59  A    between atoms: _156  and  _157
REMARK   60  A    between atoms: _159  and  _161
REMARK   61  A    between atoms: _161  and  _162
REMARK   62  A    between atoms: _161  and  _164
REMARK   63  A    between atoms: _164  and  _165
REMARK   64  A    between atoms: _170  and  _171
REMARK   65  A    between atoms: _173  and  _175
REMARK   66  A    between atoms: _175  and  _176
REMARK   67  A    between atoms: _175  and  _178
REMARK   68  A    between atoms: _178  and  _179
REMARK   69  A    between atoms: _181  and  _183
REMARK   70  A    between atoms: _183  and  _184
REMARK   71  A    between atoms: _183  and  _186
REMARK   72  A    between atoms: _186  and  _187
REMARK   73  A    between atoms: _187  and  _188
REMARK   74  A    between atoms: _188  and  _189
REMARK   75  A    between atoms: _198  and  _200
REMARK   76  A    between atoms: _200  and  _201
REMARK   77  A    between atoms: _200  and  _203
REMARK   78  A    between atoms: _203  and  _204
REMARK   79  A    between atoms: _204  and  _205
REMARK   80  A    between atoms: _210  and  _212
REMARK   81  A    between atoms: _212  and  _213
REMARK   82  A    between atoms: _212  and  _215
REMARK   83  A    between atoms: _215  and  _216
REMARK   84  A    between atoms: _219  and  _221
REMARK   85  A    between atoms: _221  and  _222
REMARK   86  A    between atoms: _221  and  _224
REMARK   87  A    between atoms: _224  and  _225
REMARK   88  A    between atoms: _230  and  _232
REMARK   89  A    between atoms: _232  and  _233
REMARK   90  A    between atoms: _232  and  _235
REMARK   91  A    between atoms: _235  and  _236
REMARK   92  A    between atoms: _241  and  _243
REMARK   93  A    between atoms: _243  and  _244
REMARK   94  A    between atoms: _243  and  _246
REMARK   95  A    between atoms: _246  and  _247
REMARK   96  A    between atoms: _252  and  _253
REMARK   97  A    between atoms: _255  and  _257
REMARK   98  A    between atoms: _257  and  _258
REMARK   99  A    between atoms: _257  and  _260
REMARK  100  A    between atoms: _260  and  _261
REMARK  101  A    between atoms: _266  and  _268
REMARK  102  A    between atoms: _268  and  _269
REMARK  103  A    between atoms: _268  and  _271
REMARK  104  A    between atoms: _271  and  _272
REMARK  105  A    between atoms: _274  and  _276
REMARK  106  A    between atoms: _276  and  _277
REMARK  107  A    between atoms: _276  and  _279
REMARK  108  A    between atoms: _279  and  _280
REMARK  109  A    between atoms: _283  and  _285
REMARK  110  A    between atoms: _285  and  _286
REMARK  111  A    between atoms: _285  and  _288
REMARK  112  A    between atoms: _288  and  _289
REMARK  113  A    between atoms: _292  and  _294
REMARK  114  A    between atoms: _294  and  _295
REMARK  115  A    between atoms: _294  and  _297
REMARK  116  A    between atoms: _297  and  _298
REMARK  117  A    between atoms: _304  and  _306
REMARK  118  A    between atoms: _306  and  _307
REMARK  119  A    between atoms: _306  and  _309
REMARK  120  A    between atoms: _309  and  _310
REMARK                            x       y       z     vdW  Elec       q    Type
REMARK                         _______ _______ _______ _____ _____    ______ ____
ROOT
ATOM      1  O   HOH     1      22.040 -14.780   4.889  0.00  0.00    +0.000 OA
ENDROOT
TORSDOF 0
