REMARK  Name = ../refined-set-2016/3dgo/3dgo_pocket.pdb
REMARK  136 active torsions:
REMARK  status: ('A' for Active; 'I' for Inactive)
REMARK    1  A    between atoms: _1  and  _3
REMARK    2  A    between atoms: _3  and  _4
REMARK    3  A    between atoms: _3  and  _6
REMARK    4  A    between atoms: _8  and  _10
REMARK    5  A    between atoms: _10  and  _11
REMARK    6  A    between atoms: _10  and  _13
REMARK    7  A    between atoms: _16  and  _18
REMARK    8  A    between atoms: _18  and  _19
REMARK    9  A    between atoms: _18  and  _21
REMARK   10  A    between atoms: _21  and  _22
REMARK   11  A    between atoms: _22  and  _23
REMARK   12  A    between atoms: _23  and  _24
REMARK   13  A    between atoms: _24  and  _25
REMARK   14  A    between atoms: _30  and  _31
REMARK   15  A    between atoms: _36  and  _38
REMARK   16  A    between atoms: _38  and  _39
REMARK   17  A    between atoms: _38  and  _41
REMARK   18  A    between atoms: _41  and  _42
REMARK   19  A    between atoms: _42  and  _43
REMARK   20  A    between atoms: _43  and  _44
REMARK   21  A    between atoms: _53  and  _55
REMARK   22  A    between atoms: _55  and  _56
REMARK   23  A    between atoms: _55  and  _58
REMARK   24  A    between atoms: _58  and  _59
REMARK   25  A    between atoms: _62  and  _64
REMARK   26  A    between atoms: _64  and  _65
REMARK   27  A    between atoms: _64  and  _67
REMARK   28  A    between atoms: _67  and  _68
REMARK   29  A    between atoms: _78  and  _80
REMARK   30  A    between atoms: _80  and  _81
REMARK   31  A    between atoms: _80  and  _83
REMARK   32  A    between atoms: _83  and  _84
REMARK   33  A    between atoms: _84  and  _85
REMARK   34  A    between atoms: _85  and  _86
REMARK   35  A    between atoms: _86  and  _87
REMARK   36  A    between atoms: _91  and  _93
REMARK   37  A    between atoms: _93  and  _94
REMARK   38  A    between atoms: _93  and  _96
REMARK   39  A    between atoms: _96  and  _97
REMARK   40  A    between atoms: _97  and  _98
REMARK   41  A    between atoms: _98  and  _99
REMARK   42  A    between atoms: _99  and  _100
REMARK   43  A    between atoms: _104  and  _106
REMARK   44  A    between atoms: _106  and  _107
REMARK   45  A    between atoms: _106  and  _109
REMARK   46  A    between atoms: _109  and  _110
REMARK   47  A    between atoms: _110  and  _111
REMARK   48  A    between atoms: _111  and  _112
REMARK   49  A    between atoms: _121  and  _123
REMARK   50  A    between atoms: _123  and  _124
REMARK   51  A    between atoms: _123  and  _126
REMARK   52  A    between atoms: _126  and  _127
REMARK   53  A    between atoms: _130  and  _132
REMARK   54  A    between atoms: _132  and  _133
REMARK   55  A    between atoms: _132  and  _135
REMARK   56  A    between atoms: _135  and  _136
REMARK   57  A    between atoms: _142  and  _144
REMARK   58  A    between atoms: _144  and  _145
REMARK   59  A    between atoms: _144  and  _147
REMARK   60  A    between atoms: _147  and  _148
REMARK   61  A    between atoms: _153  and  _155
REMARK   62  A    between atoms: _155  and  _156
REMARK   63  A    between atoms: _155  and  _158
REMARK   64  A    between atoms: _158  and  _159
REMARK   65  A    between atoms: _159  and  _160
REMARK   66  A    between atoms: _162  and  _164
REMARK   67  A    between atoms: _164  and  _165
REMARK   68  A    between atoms: _164  and  _167
REMARK   69  A    between atoms: _169  and  _171
REMARK   70  A    between atoms: _171  and  _172
REMARK   71  A    between atoms: _171  and  _174
REMARK   72  A    between atoms: _174  and  _175
REMARK   73  A    between atoms: _175  and  _176
REMARK   74  A    between atoms: _176  and  _177
REMARK   75  A    between atoms: _177  and  _178
REMARK   76  A    between atoms: _182  and  _184
REMARK   77  A    between atoms: _184  and  _185
REMARK   78  A    between atoms: _184  and  _187
REMARK   79  A    between atoms: _187  and  _188
REMARK   80  A    between atoms: _191  and  _193
REMARK   81  A    between atoms: _193  and  _194
REMARK   82  A    between atoms: _193  and  _196
REMARK   83  A    between atoms: _198  and  _200
REMARK   84  A    between atoms: _200  and  _201
REMARK   85  A    between atoms: _200  and  _203
REMARK   86  A    between atoms: _203  and  _204
REMARK   87  A    between atoms: _210  and  _212
REMARK   88  A    between atoms: _212  and  _213
REMARK   89  A    between atoms: _212  and  _215
REMARK   90  A    between atoms: _215  and  _216
REMARK   91  A    between atoms: _221  and  _223
REMARK   92  A    between atoms: _223  and  _224
REMARK   93  A    between atoms: _223  and  _226
REMARK   94  A    between atoms: _226  and  _227
REMARK   95  A    between atoms: _229  and  _231
REMARK   96  A    between atoms: _231  and  _232
REMARK   97  A    between atoms: _231  and  _234
REMARK   98  A    between atoms: _234  and  _235
REMARK   99  A    between atoms: _238  and  _240
REMARK  100  A    between atoms: _240  and  _241
REMARK  101  A    between atoms: _240  and  _243
REMARK  102  A    between atoms: _243  and  _244
REMARK  103  A    between atoms: _247  and  _249
REMARK  104  A    between atoms: _249  and  _250
REMARK  105  A    between atoms: _249  and  _252
REMARK  106  A    between atoms: _252  and  _253
REMARK  107  A    between atoms: _256  and  _258
REMARK  108  A    between atoms: _258  and  _259
REMARK  109  A    between atoms: _258  and  _261
REMARK  110  A    between atoms: _261  and  _262
REMARK  111  A    between atoms: _267  and  _268
REMARK  112  A    between atoms: _270  and  _272
REMARK  113  A    between atoms: _272  and  _273
REMARK  114  A    between atoms: _272  and  _275
REMARK  115  A    between atoms: _275  and  _276
REMARK  116  A    between atoms: _281  and  _283
REMARK  117  A    between atoms: _283  and  _284
REMARK  118  A    between atoms: _286  and  _288
REMARK  119  A    between atoms: _288  and  _289
REMARK  120  A    between atoms: _288  and  _291
REMARK  121  A    between atoms: _291  and  _292
REMARK  122  A    between atoms: _297  and  _299
REMARK  123  A    between atoms: _299  and  _300
REMARK  124  A    between atoms: _299  and  _302
REMARK  125  A    between atoms: _305  and  _307
REMARK  126  A    between atoms: _307  and  _308
REMARK  127  A    between atoms: _307  and  _310
REMARK  128  A    between atoms: _310  and  _311
REMARK  129  A    between atoms: _314  and  _316
REMARK  130  A    between atoms: _316  and  _317
REMARK  131  A    between atoms: _316  and  _319
REMARK  132  A    between atoms: _319  and  _320
REMARK  133  A    between atoms: _323  and  _325
REMARK  134  A    between atoms: _325  and  _326
REMARK  135  A    between atoms: _325  and  _328
REMARK  136  A    between atoms: _328  and  _329
REMARK                            x       y       z     vdW  Elec       q    Type
REMARK                         _______ _______ _______ _____ _____    ______ ____
ROOT
ATOM      1  C   VAL A   2     -30.983  29.410 -21.881  0.00  0.00    +0.241 C 
ATOM      2  N   LYS A   3     -32.024  28.566 -21.799  0.00  0.00    -0.298 N 
ATOM      3  H   LYS A   3     -32.101  27.957 -20.960  0.00  0.00    +0.150 HD
ATOM      4  O   VAL A   2     -30.866  30.252 -22.790  0.00  0.00    -0.273 OA
ENDROOT
BRANCH   1   5
ATOM      5  CA  VAL A   2     -29.868  29.306 -20.811  0.00  0.00    +0.148 C 
BRANCH   5   8
ATOM      6  C   CYS A   1     -31.305  28.880 -18.865  0.00  0.00    +0.239 C 
ATOM      7  O   CYS A   1     -31.997  29.845 -19.170  0.00  0.00    -0.274 OA
ATOM      8  N   VAL A   2     -30.231  28.544 -19.592  0.00  0.00    -0.297 N 
ATOM      9  H   VAL A   2     -29.644  27.738 -19.297  0.00  0.00    +0.150 HD
BRANCH   6  10
ATOM     10  CA  CYS A   1     -31.702  28.024 -17.631  0.00  0.00    +0.156 C 
BRANCH  10  11
ATOM     11  N   CYS A   1     -31.727  28.820 -16.428  0.00  0.00    -0.237 NA
ATOM     12  H   CYS A   1     -32.442  28.606 -15.704  0.00  0.00    +0.142 HD
ENDBRANCH  10  11
BRANCH  10  13
ATOM     13  CB  CYS A   1     -33.115  27.460 -17.816  0.00  0.00    +0.095 C 
ATOM     14  SG  CYS A   1     -33.269  26.591 -19.377  0.00  0.00    -0.080 S 
ENDBRANCH  10  13
ENDBRANCH   6  10
ENDBRANCH   5   8
BRANCH   5  15
ATOM     15  CB  VAL A   2     -28.585  28.779 -21.565  0.00  0.00    +0.027 C 
ATOM     16  CG2 VAL A   2     -27.343  28.811 -20.681  0.00  0.00    +0.002 C 
ATOM     17  CG1 VAL A   2     -28.831  27.396 -22.167  0.00  0.00    +0.002 C 
ENDBRANCH   5  15
ENDBRANCH   1   5
BRANCH   2  18
ATOM     18  CA  LYS A   3     -33.066  28.460 -22.843  0.00  0.00    +0.137 C 
BRANCH  18  19
ATOM     19  C   LYS A   3     -34.359  29.172 -22.489  0.00  0.00    +0.227 C 
ATOM     20  O   LYS A   3     -34.811  30.024 -23.250  0.00  0.00    -0.286 OA
ENDBRANCH  18  19
BRANCH  18  21
ATOM     21  CB  LYS A   3     -33.399  27.004 -23.168  0.00  0.00    +0.028 C 
BRANCH  21  22
ATOM     22  CG  LYS A   3     -34.495  26.820 -24.178  0.00  0.00    -0.000 C 
BRANCH  22  23
ATOM     23  CD  LYS A   3     -34.045  27.131 -25.590  0.00  0.00    -0.024 C 
BRANCH  23  24
ATOM     24  CE  LYS A   3     -35.265  27.169 -26.492  0.00  0.00    -0.086 C 
BRANCH  24  25
ATOM     25  NZ  LYS A   3     -34.847  27.712 -27.824  0.00  0.00    +0.380 N 
ATOM     26  HZ1 LYS A   3     -34.463  28.671 -27.701  0.00  0.00    -0.089 HD
ATOM     27  HZ2 LYS A   3     -34.117  27.095 -28.235  0.00  0.00    -0.089 HD
ATOM     28  HZ3 LYS A   3     -35.671  27.746 -28.457  0.00  0.00    -0.089 HD
ENDBRANCH  24  25
ENDBRANCH  23  24
ENDBRANCH  22  23
ENDBRANCH  21  22
ENDBRANCH  18  21
ENDBRANCH   2  18
TORSDOF 13
REMARK  Name = ../refined-set-2016/3dgo/3dgo_pocket.pdb
REMARK  136 active torsions:
REMARK  status: ('A' for Active; 'I' for Inactive)
REMARK    1  A    between atoms: _1  and  _3
REMARK    2  A    between atoms: _3  and  _4
REMARK    3  A    between atoms: _3  and  _6
REMARK    4  A    between atoms: _8  and  _10
REMARK    5  A    between atoms: _10  and  _11
REMARK    6  A    between atoms: _10  and  _13
REMARK    7  A    between atoms: _16  and  _18
REMARK    8  A    between atoms: _18  and  _19
REMARK    9  A    between atoms: _18  and  _21
REMARK   10  A    between atoms: _21  and  _22
REMARK   11  A    between atoms: _22  and  _23
REMARK   12  A    between atoms: _23  and  _24
REMARK   13  A    between atoms: _24  and  _25
REMARK   14  A    between atoms: _30  and  _31
REMARK   15  A    between atoms: _36  and  _38
REMARK   16  A    between atoms: _38  and  _39
REMARK   17  A    between atoms: _38  and  _41
REMARK   18  A    between atoms: _41  and  _42
REMARK   19  A    between atoms: _42  and  _43
REMARK   20  A    between atoms: _43  and  _44
REMARK   21  A    between atoms: _53  and  _55
REMARK   22  A    between atoms: _55  and  _56
REMARK   23  A    between atoms: _55  and  _58
REMARK   24  A    between atoms: _58  and  _59
REMARK   25  A    between atoms: _62  and  _64
REMARK   26  A    between atoms: _64  and  _65
REMARK   27  A    between atoms: _64  and  _67
REMARK   28  A    between atoms: _67  and  _68
REMARK   29  A    between atoms: _78  and  _80
REMARK   30  A    between atoms: _80  and  _81
REMARK   31  A    between atoms: _80  and  _83
REMARK   32  A    between atoms: _83  and  _84
REMARK   33  A    between atoms: _84  and  _85
REMARK   34  A    between atoms: _85  and  _86
REMARK   35  A    between atoms: _86  and  _87
REMARK   36  A    between atoms: _91  and  _93
REMARK   37  A    between atoms: _93  and  _94
REMARK   38  A    between atoms: _93  and  _96
REMARK   39  A    between atoms: _96  and  _97
REMARK   40  A    between atoms: _97  and  _98
REMARK   41  A    between atoms: _98  and  _99
REMARK   42  A    between atoms: _99  and  _100
REMARK   43  A    between atoms: _104  and  _106
REMARK   44  A    between atoms: _106  and  _107
REMARK   45  A    between atoms: _106  and  _109
REMARK   46  A    between atoms: _109  and  _110
REMARK   47  A    between atoms: _110  and  _111
REMARK   48  A    between atoms: _111  and  _112
REMARK   49  A    between atoms: _121  and  _123
REMARK   50  A    between atoms: _123  and  _124
REMARK   51  A    between atoms: _123  and  _126
REMARK   52  A    between atoms: _126  and  _127
REMARK   53  A    between atoms: _130  and  _132
REMARK   54  A    between atoms: _132  and  _133
REMARK   55  A    between atoms: _132  and  _135
REMARK   56  A    between atoms: _135  and  _136
REMARK   57  A    between atoms: _142  and  _144
REMARK   58  A    between atoms: _144  and  _145
REMARK   59  A    between atoms: _144  and  _147
REMARK   60  A    between atoms: _147  and  _148
REMARK   61  A    between atoms: _153  and  _155
REMARK   62  A    between atoms: _155  and  _156
REMARK   63  A    between atoms: _155  and  _158
REMARK   64  A    between atoms: _158  and  _159
REMARK   65  A    between atoms: _159  and  _160
REMARK   66  A    between atoms: _162  and  _164
REMARK   67  A    between atoms: _164  and  _165
REMARK   68  A    between atoms: _164  and  _167
REMARK   69  A    between atoms: _169  and  _171
REMARK   70  A    between atoms: _171  and  _172
REMARK   71  A    between atoms: _171  and  _174
REMARK   72  A    between atoms: _174  and  _175
REMARK   73  A    between atoms: _175  and  _176
REMARK   74  A    between atoms: _176  and  _177
REMARK   75  A    between atoms: _177  and  _178
REMARK   76  A    between atoms: _182  and  _184
REMARK   77  A    between atoms: _184  and  _185
REMARK   78  A    between atoms: _184  and  _187
REMARK   79  A    between atoms: _187  and  _188
REMARK   80  A    between atoms: _191  and  _193
REMARK   81  A    between atoms: _193  and  _194
REMARK   82  A    between atoms: _193  and  _196
REMARK   83  A    between atoms: _198  and  _200
REMARK   84  A    between atoms: _200  and  _201
REMARK   85  A    between atoms: _200  and  _203
REMARK   86  A    between atoms: _203  and  _204
REMARK   87  A    between atoms: _210  and  _212
REMARK   88  A    between atoms: _212  and  _213
REMARK   89  A    between atoms: _212  and  _215
REMARK   90  A    between atoms: _215  and  _216
REMARK   91  A    between atoms: _221  and  _223
REMARK   92  A    between atoms: _223  and  _224
REMARK   93  A    between atoms: _223  and  _226
REMARK   94  A    between atoms: _226  and  _227
REMARK   95  A    between atoms: _229  and  _231
REMARK   96  A    between atoms: _231  and  _232
REMARK   97  A    between atoms: _231  and  _234
REMARK   98  A    between atoms: _234  and  _235
REMARK   99  A    between atoms: _238  and  _240
REMARK  100  A    between atoms: _240  and  _241
REMARK  101  A    between atoms: _240  and  _243
REMARK  102  A    between atoms: _243  and  _244
REMARK  103  A    between atoms: _247  and  _249
REMARK  104  A    between atoms: _249  and  _250
REMARK  105  A    between atoms: _249  and  _252
REMARK  106  A    between atoms: _252  and  _253
REMARK  107  A    between atoms: _256  and  _258
REMARK  108  A    between atoms: _258  and  _259
REMARK  109  A    between atoms: _258  and  _261
REMARK  110  A    between atoms: _261  and  _262
REMARK  111  A    between atoms: _267  and  _268
REMARK  112  A    between atoms: _270  and  _272
REMARK  113  A    between atoms: _272  and  _273
REMARK  114  A    between atoms: _272  and  _275
REMARK  115  A    between atoms: _275  and  _276
REMARK  116  A    between atoms: _281  and  _283
REMARK  117  A    between atoms: _283  and  _284
REMARK  118  A    between atoms: _286  and  _288
REMARK  119  A    between atoms: _288  and  _289
REMARK  120  A    between atoms: _288  and  _291
REMARK  121  A    between atoms: _291  and  _292
REMARK  122  A    between atoms: _297  and  _299
REMARK  123  A    between atoms: _299  and  _300
REMARK  124  A    between atoms: _299  and  _302
REMARK  125  A    between atoms: _305  and  _307
REMARK  126  A    between atoms: _307  and  _308
REMARK  127  A    between atoms: _307  and  _310
REMARK  128  A    between atoms: _310  and  _311
REMARK  129  A    between atoms: _314  and  _316
REMARK  130  A    between atoms: _316  and  _317
REMARK  131  A    between atoms: _316  and  _319
REMARK  132  A    between atoms: _319  and  _320
REMARK  133  A    between atoms: _323  and  _325
REMARK  134  A    between atoms: _325  and  _326
REMARK  135  A    between atoms: _325  and  _328
REMARK  136  A    between atoms: _328  and  _329
REMARK                            x       y       z     vdW  Elec       q    Type
REMARK                         _______ _______ _______ _____ _____    ______ ____
ROOT
ATOM      1  CA  ASP A   3     -30.713  21.214 -13.572  0.00  0.00    +0.160 C 
ENDROOT
BRANCH   1   2
ATOM      2  C   ASP A   3     -29.268  21.082 -13.065  0.00  0.00    +0.241 C 
ATOM      3  N   TRP A   4     -29.021  20.094 -12.209  0.00  0.00    -0.297 N 
ATOM      4  H   TRP A   4     -29.774  19.407 -12.000  0.00  0.00    +0.150 HD
ATOM      5  O   ASP A   3     -28.386  21.843 -13.454  0.00  0.00    -0.273 OA
BRANCH   3   6
ATOM      6  CA  TRP A   4     -27.712  19.944 -11.548  0.00  0.00    +0.153 C 
BRANCH   6   7
ATOM      7  C   TRP A   4     -27.619  18.551 -10.907  0.00  0.00    +0.241 C 
ATOM      8  O   TRP A   4     -28.652  17.934 -10.612  0.00  0.00    -0.273 OA
ATOM      9  N   LYS A   5     -26.402  18.040 -10.715  0.00  0.00    -0.298 N 
ATOM     10  H   LYS A   5     -25.571  18.518 -11.119  0.00  0.00    +0.150 HD
BRANCH   9  11
ATOM     11  CA  LYS A   5     -26.226  16.799  -9.931  0.00  0.00    +0.137 C 
BRANCH  11  12
ATOM     12  C   LYS A   5     -24.914  16.867  -9.168  0.00  0.00    +0.227 C 
ATOM     13  O   LYS A   5     -24.026  17.644  -9.554  0.00  0.00    -0.286 OA
ENDBRANCH  11  12
BRANCH  11  14
ATOM     14  CB  LYS A   5     -26.481  15.485 -10.733  0.00  0.00    +0.028 C 
BRANCH  14  15
ATOM     15  CG  LYS A   5     -25.445  14.908 -11.721  0.00  0.00    -0.000 C 
BRANCH  15  16
ATOM     16  CD  LYS A   5     -26.056  13.634 -12.318  0.00  0.00    -0.024 C 
BRANCH  16  17
ATOM     17  CE  LYS A   5     -25.051  12.475 -12.639  0.00  0.00    -0.086 C 
BRANCH  17  18
ATOM     18  NZ  LYS A   5     -24.571  12.298 -14.134  0.00  0.00    +0.380 N 
ATOM     19  HZ1 LYS A   5     -23.912  11.495 -14.193  0.00  0.00    -0.089 HD
ATOM     20  HZ2 LYS A   5     -24.091  13.166 -14.448  0.00  0.00    -0.089 HD
ATOM     21  HZ3 LYS A   5     -25.395  12.117 -14.742  0.00  0.00    -0.089 HD
ENDBRANCH  17  18
ENDBRANCH  16  17
ENDBRANCH  15  16
ENDBRANCH  14  15
ENDBRANCH  11  14
ENDBRANCH   9  11
ENDBRANCH   6   7
BRANCH   6  22
ATOM     22  CB  TRP A   4     -27.545  21.025 -10.470  0.00  0.00    +0.057 C 
BRANCH  22  23
ATOM     23  CG  TRP A   4     -28.568  20.903  -9.344  0.00  0.00    -0.002 A 
ATOM     24  CD2 TRP A   4     -28.420  20.191  -8.082  0.00  0.00    +0.013 A 
ATOM     25  CE2 TRP A   4     -29.625  20.366  -7.362  0.00  0.00    +0.056 A 
ATOM     26  CZ2 TRP A   4     -29.823  19.829  -6.078  0.00  0.00    +0.017 A 
ATOM     27  CH2 TRP A   4     -28.803  19.062  -5.535  0.00  0.00    +0.001 A 
ATOM     28  CZ3 TRP A   4     -27.569  18.876  -6.223  0.00  0.00    +0.000 A 
ATOM     29  NE1 TRP A   4     -30.451  21.131  -8.139  0.00  0.00    -0.352 N 
ATOM     30  HE1 TRP A   4     -31.418  21.417  -7.884  0.00  0.00    +0.166 HD
ATOM     31  CE3 TRP A   4     -27.378  19.417  -7.494  0.00  0.00    +0.001 A 
ATOM     32  CD1 TRP A   4     -29.806  21.466  -9.313  0.00  0.00    +0.068 A 
ENDBRANCH  22  23
ENDBRANCH   6  22
ENDBRANCH   3   6
ENDBRANCH   1   2
BRANCH   1  35
ATOM     33  C   ARG A   2     -30.875  23.570 -13.330  0.00  0.00    +0.241 C 
ATOM     34  O   ARG A   2     -30.922  23.510 -12.073  0.00  0.00    -0.273 OA
ATOM     35  N   ASP A   3     -30.928  22.493 -14.120  0.00  0.00    -0.297 N 
ATOM     36  H   ASP A   3     -31.127  22.599 -15.135  0.00  0.00    +0.150 HD
BRANCH  33  37
ATOM     37  CA  ARG A   2     -30.734  24.919 -14.043  0.00  0.00    +0.149 C 
BRANCH  37  39
ATOM     38  C   PRO A   1     -32.596  26.218 -13.223  0.00  0.00    +0.239 C 
ATOM     39  N   ARG A   2     -31.287  26.028 -13.272  0.00  0.00    -0.297 N 
ATOM     40  H   ARG A   2     -30.650  26.671 -12.759  0.00  0.00    +0.150 HD
ATOM     41  O   PRO A   1     -33.392  25.399 -13.678  0.00  0.00    -0.274 OA
BRANCH  38  46
ATOM     42  N   PRO A   1     -34.513  27.746 -12.928  0.00  0.00    -0.210 NA
ATOM     43  CD  PRO A   1     -35.387  27.654 -11.743  0.00  0.00    +0.089 C 
ATOM     44  CG  PRO A   1     -34.531  26.945 -10.752  0.00  0.00    +0.021 C 
ATOM     45  CB  PRO A   1     -33.155  27.403 -11.049  0.00  0.00    +0.028 C 
ATOM     46  CA  PRO A   1     -33.101  27.511 -12.580  0.00  0.00    +0.149 C 
ENDBRANCH  38  46
ENDBRANCH  37  39
BRANCH  37  47
ATOM     47  CB  ARG A   2     -29.283  25.198 -14.342  0.00  0.00    +0.033 C 
BRANCH  47  48
ATOM     48  CG  ARG A   2     -29.121  26.281 -15.378  0.00  0.00    +0.045 C 
BRANCH  48  49
ATOM     49  CD  ARG A   2     -27.697  26.743 -15.464  0.00  0.00    +0.174 C 
BRANCH  49  50
ATOM     50  NE  ARG A   2     -27.676  28.043 -16.112  0.00  0.00    -0.265 N 
ATOM     51  HE  ARG A   2     -28.538  28.623 -16.056  0.00  0.00    +0.259 HD
ATOM     52  CZ  ARG A   2     -26.637  28.547 -16.772  0.00  0.00    +0.342 C 
ATOM     53  NH2 ARG A   2     -25.477  27.863 -16.891  0.00  0.00    -0.292 N 
ATOM     54 HH21 ARG A   2     -25.383  26.921 -16.461  0.00  0.00    +0.255 HD
ATOM     55 HH22 ARG A   2     -24.679  28.279 -17.412  0.00  0.00    +0.255 HD
ATOM     56  NH1 ARG A   2     -26.765  29.749 -17.314  0.00  0.00    -0.292 N 
ATOM     57 HH11 ARG A   2     -27.659  30.271 -17.217  0.00  0.00    +0.255 HD
ATOM     58 HH12 ARG A   2     -25.971  30.171 -17.837  0.00  0.00    +0.255 HD
ENDBRANCH  49  50
ENDBRANCH  48  49
ENDBRANCH  47  48
ENDBRANCH  37  47
ENDBRANCH  33  37
ENDBRANCH   1  35
BRANCH   1  59
ATOM     59  CB  ASP A   3     -30.970  20.146 -14.609  0.00  0.00    +0.143 C 
BRANCH  59  60
ATOM     60  CG  ASP A   3     -31.364  18.801 -13.959  0.00  0.00    +0.367 C 
ATOM     61  OD2 ASP A   3     -31.486  18.699 -12.720  0.00  0.00    -0.246 OA
ATOM     62  OD1 ASP A   3     -31.587  17.840 -14.688  0.00  0.00    -0.246 OA
ENDBRANCH  59  60
ENDBRANCH   1  59
TORSDOF 22
REMARK  Name = ../refined-set-2016/3dgo/3dgo_pocket.pdb
REMARK  136 active torsions:
REMARK  status: ('A' for Active; 'I' for Inactive)
REMARK    1  A    between atoms: _1  and  _3
REMARK    2  A    between atoms: _3  and  _4
REMARK    3  A    between atoms: _3  and  _6
REMARK    4  A    between atoms: _8  and  _10
REMARK    5  A    between atoms: _10  and  _11
REMARK    6  A    between atoms: _10  and  _13
REMARK    7  A    between atoms: _16  and  _18
REMARK    8  A    between atoms: _18  and  _19
REMARK    9  A    between atoms: _18  and  _21
REMARK   10  A    between atoms: _21  and  _22
REMARK   11  A    between atoms: _22  and  _23
REMARK   12  A    between atoms: _23  and  _24
REMARK   13  A    between atoms: _24  and  _25
REMARK   14  A    between atoms: _30  and  _31
REMARK   15  A    between atoms: _36  and  _38
REMARK   16  A    between atoms: _38  and  _39
REMARK   17  A    between atoms: _38  and  _41
REMARK   18  A    between atoms: _41  and  _42
REMARK   19  A    between atoms: _42  and  _43
REMARK   20  A    between atoms: _43  and  _44
REMARK   21  A    between atoms: _53  and  _55
REMARK   22  A    between atoms: _55  and  _56
REMARK   23  A    between atoms: _55  and  _58
REMARK   24  A    between atoms: _58  and  _59
REMARK   25  A    between atoms: _62  and  _64
REMARK   26  A    between atoms: _64  and  _65
REMARK   27  A    between atoms: _64  and  _67
REMARK   28  A    between atoms: _67  and  _68
REMARK   29  A    between atoms: _78  and  _80
REMARK   30  A    between atoms: _80  and  _81
REMARK   31  A    between atoms: _80  and  _83
REMARK   32  A    between atoms: _83  and  _84
REMARK   33  A    between atoms: _84  and  _85
REMARK   34  A    between atoms: _85  and  _86
REMARK   35  A    between atoms: _86  and  _87
REMARK   36  A    between atoms: _91  and  _93
REMARK   37  A    between atoms: _93  and  _94
REMARK   38  A    between atoms: _93  and  _96
REMARK   39  A    between atoms: _96  and  _97
REMARK   40  A    between atoms: _97  and  _98
REMARK   41  A    between atoms: _98  and  _99
REMARK   42  A    between atoms: _99  and  _100
REMARK   43  A    between atoms: _104  and  _106
REMARK   44  A    between atoms: _106  and  _107
REMARK   45  A    between atoms: _106  and  _109
REMARK   46  A    between atoms: _109  and  _110
REMARK   47  A    between atoms: _110  and  _111
REMARK   48  A    between atoms: _111  and  _112
REMARK   49  A    between atoms: _121  and  _123
REMARK   50  A    between atoms: _123  and  _124
REMARK   51  A    between atoms: _123  and  _126
REMARK   52  A    between atoms: _126  and  _127
REMARK   53  A    between atoms: _130  and  _132
REMARK   54  A    between atoms: _132  and  _133
REMARK   55  A    between atoms: _132  and  _135
REMARK   56  A    between atoms: _135  and  _136
REMARK   57  A    between atoms: _142  and  _144
REMARK   58  A    between atoms: _144  and  _145
REMARK   59  A    between atoms: _144  and  _147
REMARK   60  A    between atoms: _147  and  _148
REMARK   61  A    between atoms: _153  and  _155
REMARK   62  A    between atoms: _155  and  _156
REMARK   63  A    between atoms: _155  and  _158
REMARK   64  A    between atoms: _158  and  _159
REMARK   65  A    between atoms: _159  and  _160
REMARK   66  A    between atoms: _162  and  _164
REMARK   67  A    between atoms: _164  and  _165
REMARK   68  A    between atoms: _164  and  _167
REMARK   69  A    between atoms: _169  and  _171
REMARK   70  A    between atoms: _171  and  _172
REMARK   71  A    between atoms: _171  and  _174
REMARK   72  A    between atoms: _174  and  _175
REMARK   73  A    between atoms: _175  and  _176
REMARK   74  A    between atoms: _176  and  _177
REMARK   75  A    between atoms: _177  and  _178
REMARK   76  A    between atoms: _182  and  _184
REMARK   77  A    between atoms: _184  and  _185
REMARK   78  A    between atoms: _184  and  _187
REMARK   79  A    between atoms: _187  and  _188
REMARK   80  A    between atoms: _191  and  _193
REMARK   81  A    between atoms: _193  and  _194
REMARK   82  A    between atoms: _193  and  _196
REMARK   83  A    between atoms: _198  and  _200
REMARK   84  A    between atoms: _200  and  _201
REMARK   85  A    between atoms: _200  and  _203
REMARK   86  A    between atoms: _203  and  _204
REMARK   87  A    between atoms: _210  and  _212
REMARK   88  A    between atoms: _212  and  _213
REMARK   89  A    between atoms: _212  and  _215
REMARK   90  A    between atoms: _215  and  _216
REMARK   91  A    between atoms: _221  and  _223
REMARK   92  A    between atoms: _223  and  _224
REMARK   93  A    between atoms: _223  and  _226
REMARK   94  A    between atoms: _226  and  _227
REMARK   95  A    between atoms: _229  and  _231
REMARK   96  A    between atoms: _231  and  _232
REMARK   97  A    between atoms: _231  and  _234
REMARK   98  A    between atoms: _234  and  _235
REMARK   99  A    between atoms: _238  and  _240
REMARK  100  A    between atoms: _240  and  _241
REMARK  101  A    between atoms: _240  and  _243
REMARK  102  A    between atoms: _243  and  _244
REMARK  103  A    between atoms: _247  and  _249
REMARK  104  A    between atoms: _249  and  _250
REMARK  105  A    between atoms: _249  and  _252
REMARK  106  A    between atoms: _252  and  _253
REMARK  107  A    between atoms: _256  and  _258
REMARK  108  A    between atoms: _258  and  _259
REMARK  109  A    between atoms: _258  and  _261
REMARK  110  A    between atoms: _261  and  _262
REMARK  111  A    between atoms: _267  and  _268
REMARK  112  A    between atoms: _270  and  _272
REMARK  113  A    between atoms: _272  and  _273
REMARK  114  A    between atoms: _272  and  _275
REMARK  115  A    between atoms: _275  and  _276
REMARK  116  A    between atoms: _281  and  _283
REMARK  117  A    between atoms: _283  and  _284
REMARK  118  A    between atoms: _286  and  _288
REMARK  119  A    between atoms: _288  and  _289
REMARK  120  A    between atoms: _288  and  _291
REMARK  121  A    between atoms: _291  and  _292
REMARK  122  A    between atoms: _297  and  _299
REMARK  123  A    between atoms: _299  and  _300
REMARK  124  A    between atoms: _299  and  _302
REMARK  125  A    between atoms: _305  and  _307
REMARK  126  A    between atoms: _307  and  _308
REMARK  127  A    between atoms: _307  and  _310
REMARK  128  A    between atoms: _310  and  _311
REMARK  129  A    between atoms: _314  and  _316
REMARK  130  A    between atoms: _316  and  _317
REMARK  131  A    between atoms: _316  and  _319
REMARK  132  A    between atoms: _319  and  _320
REMARK  133  A    between atoms: _323  and  _325
REMARK  134  A    between atoms: _325  and  _326
REMARK  135  A    between atoms: _325  and  _328
REMARK  136  A    between atoms: _328  and  _329
REMARK                            x       y       z     vdW  Elec       q    Type
REMARK                         _______ _______ _______ _____ _____    ______ ____
ROOT
ATOM      1  CG  LYS A   1     -19.606  14.351 -11.507  0.00  0.00    -0.000 C 
ENDROOT
BRANCH   1   2
ATOM      2  CB  LYS A   1     -20.272  15.003 -10.262  0.00  0.00    +0.025 C 
BRANCH   2   3
ATOM      3  CA  LYS A   1     -20.593  14.160  -8.955  0.00  0.00    +0.133 C 
BRANCH   3   4
ATOM      4  N   LYS A   1     -21.451  14.998  -8.044  0.00  0.00    -0.239 NA
ATOM      5  H   LYS A   1     -20.990  15.765  -7.514  0.00  0.00    +0.142 HD
ENDBRANCH   3   4
BRANCH   3   6
ATOM      6  C   LYS A   1     -19.312  13.838  -8.137  0.00  0.00    +0.224 C 
ATOM      7  O   LYS A   1     -18.194  14.272  -8.515  0.00  0.00    -0.287 OA
ENDBRANCH   3   6
ENDBRANCH   2   3
ENDBRANCH   1   2
BRANCH   1   8
ATOM      8  CD  LYS A   1     -20.661  13.696 -12.442  0.00  0.00    -0.024 C 
BRANCH   8   9
ATOM      9  CE  LYS A   1     -20.055  12.646 -13.391  0.00  0.00    -0.086 C 
BRANCH   9  10
ATOM     10  NZ  LYS A   1     -21.189  11.816 -13.921  0.00  0.00    +0.380 N 
ATOM     11  HZ1 LYS A   1     -21.678  11.353 -13.128  0.00  0.00    -0.089 HD
ATOM     12  HZ2 LYS A   1     -21.856  12.429 -14.432  0.00  0.00    -0.089 HD
ATOM     13  HZ3 LYS A   1     -20.815  11.093 -14.568  0.00  0.00    -0.089 HD
ENDBRANCH   9  10
ENDBRANCH   8   9
ENDBRANCH   1   8
TORSDOF 7
REMARK  Name = ../refined-set-2016/3dgo/3dgo_pocket.pdb
REMARK  136 active torsions:
REMARK  status: ('A' for Active; 'I' for Inactive)
REMARK    1  A    between atoms: _1  and  _3
REMARK    2  A    between atoms: _3  and  _4
REMARK    3  A    between atoms: _3  and  _6
REMARK    4  A    between atoms: _8  and  _10
REMARK    5  A    between atoms: _10  and  _11
REMARK    6  A    between atoms: _10  and  _13
REMARK    7  A    between atoms: _16  and  _18
REMARK    8  A    between atoms: _18  and  _19
REMARK    9  A    between atoms: _18  and  _21
REMARK   10  A    between atoms: _21  and  _22
REMARK   11  A    between atoms: _22  and  _23
REMARK   12  A    between atoms: _23  and  _24
REMARK   13  A    between atoms: _24  and  _25
REMARK   14  A    between atoms: _30  and  _31
REMARK   15  A    between atoms: _36  and  _38
REMARK   16  A    between atoms: _38  and  _39
REMARK   17  A    between atoms: _38  and  _41
REMARK   18  A    between atoms: _41  and  _42
REMARK   19  A    between atoms: _42  and  _43
REMARK   20  A    between atoms: _43  and  _44
REMARK   21  A    between atoms: _53  and  _55
REMARK   22  A    between atoms: _55  and  _56
REMARK   23  A    between atoms: _55  and  _58
REMARK   24  A    between atoms: _58  and  _59
REMARK   25  A    between atoms: _62  and  _64
REMARK   26  A    between atoms: _64  and  _65
REMARK   27  A    between atoms: _64  and  _67
REMARK   28  A    between atoms: _67  and  _68
REMARK   29  A    between atoms: _78  and  _80
REMARK   30  A    between atoms: _80  and  _81
REMARK   31  A    between atoms: _80  and  _83
REMARK   32  A    between atoms: _83  and  _84
REMARK   33  A    between atoms: _84  and  _85
REMARK   34  A    between atoms: _85  and  _86
REMARK   35  A    between atoms: _86  and  _87
REMARK   36  A    between atoms: _91  and  _93
REMARK   37  A    between atoms: _93  and  _94
REMARK   38  A    between atoms: _93  and  _96
REMARK   39  A    between atoms: _96  and  _97
REMARK   40  A    between atoms: _97  and  _98
REMARK   41  A    between atoms: _98  and  _99
REMARK   42  A    between atoms: _99  and  _100
REMARK   43  A    between atoms: _104  and  _106
REMARK   44  A    between atoms: _106  and  _107
REMARK   45  A    between atoms: _106  and  _109
REMARK   46  A    between atoms: _109  and  _110
REMARK   47  A    between atoms: _110  and  _111
REMARK   48  A    between atoms: _111  and  _112
REMARK   49  A    between atoms: _121  and  _123
REMARK   50  A    between atoms: _123  and  _124
REMARK   51  A    between atoms: _123  and  _126
REMARK   52  A    between atoms: _126  and  _127
REMARK   53  A    between atoms: _130  and  _132
REMARK   54  A    between atoms: _132  and  _133
REMARK   55  A    between atoms: _132  and  _135
REMARK   56  A    between atoms: _135  and  _136
REMARK   57  A    between atoms: _142  and  _144
REMARK   58  A    between atoms: _144  and  _145
REMARK   59  A    between atoms: _144  and  _147
REMARK   60  A    between atoms: _147  and  _148
REMARK   61  A    between atoms: _153  and  _155
REMARK   62  A    between atoms: _155  and  _156
REMARK   63  A    between atoms: _155  and  _158
REMARK   64  A    between atoms: _158  and  _159
REMARK   65  A    between atoms: _159  and  _160
REMARK   66  A    between atoms: _162  and  _164
REMARK   67  A    between atoms: _164  and  _165
REMARK   68  A    between atoms: _164  and  _167
REMARK   69  A    between atoms: _169  and  _171
REMARK   70  A    between atoms: _171  and  _172
REMARK   71  A    between atoms: _171  and  _174
REMARK   72  A    between atoms: _174  and  _175
REMARK   73  A    between atoms: _175  and  _176
REMARK   74  A    between atoms: _176  and  _177
REMARK   75  A    between atoms: _177  and  _178
REMARK   76  A    between atoms: _182  and  _184
REMARK   77  A    between atoms: _184  and  _185
REMARK   78  A    between atoms: _184  and  _187
REMARK   79  A    between atoms: _187  and  _188
REMARK   80  A    between atoms: _191  and  _193
REMARK   81  A    between atoms: _193  and  _194
REMARK   82  A    between atoms: _193  and  _196
REMARK   83  A    between atoms: _198  and  _200
REMARK   84  A    between atoms: _200  and  _201
REMARK   85  A    between atoms: _200  and  _203
REMARK   86  A    between atoms: _203  and  _204
REMARK   87  A    between atoms: _210  and  _212
REMARK   88  A    between atoms: _212  and  _213
REMARK   89  A    between atoms: _212  and  _215
REMARK   90  A    between atoms: _215  and  _216
REMARK   91  A    between atoms: _221  and  _223
REMARK   92  A    between atoms: _223  and  _224
REMARK   93  A    between atoms: _223  and  _226
REMARK   94  A    between atoms: _226  and  _227
REMARK   95  A    between atoms: _229  and  _231
REMARK   96  A    between atoms: _231  and  _232
REMARK   97  A    between atoms: _231  and  _234
REMARK   98  A    between atoms: _234  and  _235
REMARK   99  A    between atoms: _238  and  _240
REMARK  100  A    between atoms: _240  and  _241
REMARK  101  A    between atoms: _240  and  _243
REMARK  102  A    between atoms: _243  and  _244
REMARK  103  A    between atoms: _247  and  _249
REMARK  104  A    between atoms: _249  and  _250
REMARK  105  A    between atoms: _249  and  _252
REMARK  106  A    between atoms: _252  and  _253
REMARK  107  A    between atoms: _256  and  _258
REMARK  108  A    between atoms: _258  and  _259
REMARK  109  A    between atoms: _258  and  _261
REMARK  110  A    between atoms: _261  and  _262
REMARK  111  A    between atoms: _267  and  _268
REMARK  112  A    between atoms: _270  and  _272
REMARK  113  A    between atoms: _272  and  _273
REMARK  114  A    between atoms: _272  and  _275
REMARK  115  A    between atoms: _275  and  _276
REMARK  116  A    between atoms: _281  and  _283
REMARK  117  A    between atoms: _283  and  _284
REMARK  118  A    between atoms: _286  and  _288
REMARK  119  A    between atoms: _288  and  _289
REMARK  120  A    between atoms: _288  and  _291
REMARK  121  A    between atoms: _291  and  _292
REMARK  122  A    between atoms: _297  and  _299
REMARK  123  A    between atoms: _299  and  _300
REMARK  124  A    between atoms: _299  and  _302
REMARK  125  A    between atoms: _305  and  _307
REMARK  126  A    between atoms: _307  and  _308
REMARK  127  A    between atoms: _307  and  _310
REMARK  128  A    between atoms: _310  and  _311
REMARK  129  A    between atoms: _314  and  _316
REMARK  130  A    between atoms: _316  and  _317
REMARK  131  A    between atoms: _316  and  _319
REMARK  132  A    between atoms: _319  and  _320
REMARK  133  A    between atoms: _323  and  _325
REMARK  134  A    between atoms: _325  and  _326
REMARK  135  A    between atoms: _325  and  _328
REMARK  136  A    between atoms: _328  and  _329
REMARK                            x       y       z     vdW  Elec       q    Type
REMARK                         _______ _______ _______ _____ _____    ______ ____
ROOT
ATOM      1  C   MET A   5     -31.637  23.280 -17.696  0.00  0.00    +0.241 C 
ATOM      2  O   MET A   5     -31.109  22.327 -17.073  0.00  0.00    -0.273 OA
ATOM      3  N   CYS A   6     -32.851  23.768 -17.410  0.00  0.00    -0.296 N 
ATOM      4  H   CYS A   6     -33.183  24.639 -17.872  0.00  0.00    +0.150 HD
ENDROOT
BRANCH   3   5
ATOM      5  CA  CYS A   6     -33.718  23.072 -16.441  0.00  0.00    +0.160 C 
BRANCH   5   6
ATOM      6  C   CYS A   6     -34.111  21.687 -17.049  0.00  0.00    +0.242 C 
ATOM      7  N   LYS A   7     -34.728  20.802 -16.264  0.00  0.00    -0.297 N 
ATOM      8  H   LYS A   7     -34.980  21.024 -15.280  0.00  0.00    +0.150 HD
ATOM      9  O   CYS A   6     -33.837  21.406 -18.256  0.00  0.00    -0.273 OA
BRANCH   7  10
ATOM     10  CA  LYS A   7     -35.031  19.498 -16.866  0.00  0.00    +0.149 C 
BRANCH  10  11
ATOM     11  C   LYS A   7     -36.095  19.588 -18.012  0.00  0.00    +0.241 C 
ATOM     12  N   THR A   8     -37.072  20.489 -17.872  0.00  0.00    -0.295 N 
ATOM     13  H   THR A   8     -37.062  21.118 -17.044  0.00  0.00    +0.150 HD
ATOM     14  O   LYS A   7     -35.980  18.853 -19.029  0.00  0.00    -0.273 OA
BRANCH  12  15
ATOM     15  CA  THR A   8     -38.126  20.614 -18.822  0.00  0.00    +0.176 C 
BRANCH  15  16
ATOM     16  C   THR A   8     -37.608  21.070 -20.170  0.00  0.00    +0.243 C 
ATOM     17  N   CYS A   9     -36.813  22.140 -20.196  0.00  0.00    -0.296 N 
ATOM     18  H   CYS A   9     -36.611  22.665 -19.321  0.00  0.00    +0.150 HD
ATOM     19  O   THR A   8     -37.936  20.470 -21.203  0.00  0.00    -0.273 OA
BRANCH  17  20
ATOM     20  CA  CYS A   9     -36.228  22.569 -21.467  0.00  0.00    +0.160 C 
BRANCH  20  21
ATOM     21  C   CYS A   9     -35.293  21.527 -22.053  0.00  0.00    +0.242 C 
ATOM     22  N   PHE A  10     -34.535  20.819 -21.208  0.00  0.00    -0.297 N 
ATOM     23  H   PHE A  10     -34.568  21.018 -20.188  0.00  0.00    +0.150 HD
ATOM     24  O   CYS A   9     -35.243  21.377 -23.271  0.00  0.00    -0.273 OA
BRANCH  22  25
ATOM     25  CA  PHE A  10     -33.659  19.764 -21.720  0.00  0.00    +0.153 C 
BRANCH  25  26
ATOM     26  C   PHE A  10     -34.473  18.642 -22.426  0.00  0.00    +0.241 C 
ATOM     27  N   ASN A  11     -35.468  18.081 -21.724  0.00  0.00    -0.298 N 
ATOM     28  H   ASN A  11     -35.649  18.362 -20.739  0.00  0.00    +0.150 HD
ATOM     29  O   PHE A  10     -34.213  18.299 -23.613  0.00  0.00    -0.273 OA
BRANCH  27  30
ATOM     30  CA  ASN A  11     -36.297  17.060 -22.378  0.00  0.00    +0.146 C 
BRANCH  30  31
ATOM     31  C   ASN A  11     -36.859  17.560 -23.683  0.00  0.00    +0.227 C 
ATOM     32  O   ASN A  11     -36.770  16.853 -24.730  0.00  0.00    -0.286 OA
ENDBRANCH  30  31
BRANCH  30  33
ATOM     33  CB  ASN A  11     -37.386  16.563 -21.467  0.00  0.00    +0.112 C 
BRANCH  33  34
ATOM     34  CG  ASN A  11     -36.803  15.795 -20.275  0.00  0.00    +0.222 C 
ATOM     35  ND2 ASN A  11     -37.499  15.829 -19.126  0.00  0.00    -0.329 N 
ATOM     36 HD21 ASN A  11     -37.120  15.367 -18.275  0.00  0.00    +0.145 HD
ATOM     37 HD22 ASN A  11     -38.416  16.317 -19.088  0.00  0.00    +0.145 HD
ATOM     38  OD1 ASN A  11     -35.705  15.227 -20.375  0.00  0.00    -0.275 OA
ENDBRANCH  33  34
ENDBRANCH  30  33
ENDBRANCH  27  30
ENDBRANCH  25  26
BRANCH  25  39
ATOM     39  CB  PHE A  10     -32.761  19.192 -20.621  0.00  0.00    +0.055 C 
BRANCH  39  40
ATOM     40  CG  PHE A  10     -31.881  18.086 -21.099  0.00  0.00    -0.020 A 
ATOM     41  CD2 PHE A  10     -32.143  16.752 -20.724  0.00  0.00    -0.004 A 
ATOM     42  CE2 PHE A  10     -31.294  15.691 -21.197  0.00  0.00    -0.000 A 
ATOM     43  CZ  PHE A  10     -30.195  15.992 -22.083  0.00  0.00    -0.000 A 
ATOM     44  CE1 PHE A  10     -29.946  17.323 -22.450  0.00  0.00    -0.000 A 
ATOM     45  CD1 PHE A  10     -30.788  18.359 -21.964  0.00  0.00    -0.004 A 
ENDBRANCH  39  40
ENDBRANCH  25  39
ENDBRANCH  22  25
ENDBRANCH  20  21
BRANCH  20  46
ATOM     46  CB  CYS A   9     -35.462  23.853 -21.313  0.00  0.00    +0.098 C 
ATOM     47  SG  CYS A   9     -36.547  25.258 -21.046  0.00  0.00    -0.080 S 
ENDBRANCH  20  46
ENDBRANCH  17  20
ENDBRANCH  15  16
BRANCH  15  48
ATOM     48  CB  THR A   8     -39.185  21.615 -18.328  0.00  0.00    +0.137 C 
ATOM     49  CG2 THR A   8     -40.326  21.743 -19.332  0.00  0.00    +0.034 C 
BRANCH  48  50
ATOM     50  OG1 THR A   8     -39.760  21.135 -17.109  0.00  0.00    -0.382 OA
ATOM     51  HG1 THR A   8     -40.441  21.779 -16.791  0.00  0.00    +0.210 HD
ENDBRANCH  48  50
ENDBRANCH  15  48
ENDBRANCH  12  15
ENDBRANCH  10  11
BRANCH  10  52
ATOM     52  CB  LYS A   7     -35.360  18.404 -15.829  0.00  0.00    +0.029 C 
BRANCH  52  53
ATOM     53  CG  LYS A   7     -35.843  17.130 -16.509  0.00  0.00    +0.000 C 
BRANCH  53  54
ATOM     54  CD  LYS A   7     -35.595  15.885 -15.731  0.00  0.00    -0.024 C 
BRANCH  54  55
ATOM     55  CE  LYS A   7     -34.072  15.764 -15.438  0.00  0.00    -0.086 C 
BRANCH  55  56
ATOM     56  NZ  LYS A   7     -33.233  15.549 -16.656  0.00  0.00    +0.380 N 
ATOM     57  HZ1 LYS A   7     -32.233  15.479 -16.379  0.00  0.00    -0.089 HD
ATOM     58  HZ2 LYS A   7     -33.526  14.669 -17.127  0.00  0.00    -0.089 HD
ATOM     59  HZ3 LYS A   7     -33.358  16.350 -17.307  0.00  0.00    -0.089 HD
ENDBRANCH  55  56
ENDBRANCH  54  55
ENDBRANCH  53  54
ENDBRANCH  52  53
ENDBRANCH  10  52
ENDBRANCH   7  10
ENDBRANCH   5   6
BRANCH   5  60
ATOM     60  CB  CYS A   6     -34.956  23.944 -16.068  0.00  0.00    +0.098 C 
ATOM     61  SG  CYS A   6     -36.023  24.203 -17.453  0.00  0.00    -0.080 S 
ENDBRANCH   5  60
ENDBRANCH   3   5
BRANCH   1  62
ATOM     62  CA  MET A   5     -30.916  23.933 -18.864  0.00  0.00    +0.149 C 
BRANCH  62  64
ATOM     63  C   ASN A   4     -28.646  24.820 -18.869  0.00  0.00    +0.241 C 
ATOM     64  N   MET A   5     -29.495  23.778 -18.830  0.00  0.00    -0.297 N 
ATOM     65  H   MET A   5     -29.101  22.817 -18.773  0.00  0.00    +0.150 HD
ATOM     66  O   ASN A   4     -29.002  26.037 -18.859  0.00  0.00    -0.273 OA
BRANCH  63  67
ATOM     67  CA  ASN A   4     -27.154  24.439 -18.921  0.00  0.00    +0.158 C 
BRANCH  67  70
ATOM     68  C   PHE A   3     -26.847  23.012 -17.044  0.00  0.00    +0.241 C 
ATOM     69  O   PHE A   3     -27.257  23.911 -16.323  0.00  0.00    -0.273 OA
ATOM     70  N   ASN A   4     -26.792  23.154 -18.353  0.00  0.00    -0.297 N 
ATOM     71  H   ASN A   4     -26.497  22.365 -18.963  0.00  0.00    +0.150 HD
BRANCH  68  72
ATOM     72  CA  PHE A   3     -26.382  21.711 -16.437  0.00  0.00    +0.153 C 
BRANCH  72  74
ATOM     73  C   ILE A   2     -24.921  22.487 -14.576  0.00  0.00    +0.241 C 
ATOM     74  N   PHE A   3     -26.060  21.867 -14.976  0.00  0.00    -0.297 N 
ATOM     75  H   PHE A   3     -26.719  21.495 -14.263  0.00  0.00    +0.150 HD
ATOM     76  O   ILE A   2     -24.094  22.910 -15.392  0.00  0.00    -0.273 OA
BRANCH  73  77
ATOM     77  CA  ILE A   2     -24.635  22.660 -13.066  0.00  0.00    +0.148 C 
BRANCH  77  80
ATOM     78  C   ARG A   1     -23.533  20.571 -12.277  0.00  0.00    +0.238 C 
ATOM     79  O   ARG A   1     -24.619  20.067 -11.942  0.00  0.00    -0.274 OA
ATOM     80  N   ILE A   2     -23.424  21.856 -12.699  0.00  0.00    -0.297 N 
ATOM     81  H   ILE A   2     -22.482  22.292 -12.769  0.00  0.00    +0.150 HD
BRANCH  78  82
ATOM     82  CA  ARG A   1     -22.260  19.710 -12.152  0.00  0.00    +0.145 C 
BRANCH  82  83
ATOM     83  N   ARG A   1     -22.079  19.485 -10.722  0.00  0.00    -0.238 NA
ATOM     84  H   ARG A   1     -22.539  18.666 -10.276  0.00  0.00    +0.142 HD
ENDBRANCH  82  83
BRANCH  82  85
ATOM     85  CB  ARG A   1     -22.500  18.358 -12.796  0.00  0.00    +0.030 C 
BRANCH  85  86
ATOM     86  CG  ARG A   1     -22.990  18.347 -14.273  0.00  0.00    +0.045 C 
BRANCH  86  87
ATOM     87  CD  ARG A   1     -22.601  17.049 -14.940  0.00  0.00    +0.174 C 
BRANCH  87  88
ATOM     88  NE  ARG A   1     -21.138  16.987 -14.981  0.00  0.00    -0.265 N 
ATOM     89  HE  ARG A   1     -20.611  17.787 -14.577  0.00  0.00    +0.259 HD
ATOM     90  CZ  ARG A   1     -20.432  15.980 -15.499  0.00  0.00    +0.342 C 
ATOM     91  NH2 ARG A   1     -19.111  15.995 -15.498  0.00  0.00    -0.292 N 
ATOM     92 HH21 ARG A   1     -18.600  16.803 -15.088  0.00  0.00    +0.255 HD
ATOM     93 HH22 ARG A   1     -18.582  15.199 -15.907  0.00  0.00    +0.255 HD
ATOM     94  NH1 ARG A   1     -21.064  14.938 -16.006  0.00  0.00    -0.292 N 
ATOM     95 HH11 ARG A   1     -22.104  14.907 -16.000  0.00  0.00    +0.255 HD
ATOM     96 HH12 ARG A   1     -20.522  14.148 -16.412  0.00  0.00    +0.255 HD
ENDBRANCH  87  88
ENDBRANCH  86  87
ENDBRANCH  85  86
ENDBRANCH  82  85
ENDBRANCH  78  82
ENDBRANCH  77  80
BRANCH  77  97
ATOM     97  CB  ILE A   2     -24.482  24.174 -12.709  0.00  0.00    +0.027 C 
ATOM     98  CG2 ILE A   2     -25.678  24.964 -13.190  0.00  0.00    +0.002 C 
BRANCH  97  99
ATOM     99  CG1 ILE A   2     -24.365  24.369 -11.194  0.00  0.00    +0.002 C 
ATOM    100  CD1 ILE A   2     -23.498  25.609 -10.807  0.00  0.00    +0.000 C 
ENDBRANCH  97  99
ENDBRANCH  77  97
ENDBRANCH  73  77
ENDBRANCH  72  74
BRANCH  72 101
ATOM    101  CB  PHE A   3     -27.416  20.646 -16.658  0.00  0.00    +0.055 C 
BRANCH 101 102
ATOM    102  CG  PHE A   3     -26.944  19.251 -16.280  0.00  0.00    -0.020 A 
ATOM    103  CD2 PHE A   3     -27.332  18.678 -15.098  0.00  0.00    -0.004 A 
ATOM    104  CE2 PHE A   3     -26.858  17.331 -14.748  0.00  0.00    -0.000 A 
ATOM    105  CZ  PHE A   3     -26.070  16.598 -15.646  0.00  0.00    -0.000 A 
ATOM    106  CE1 PHE A   3     -25.739  17.154 -16.857  0.00  0.00    -0.000 A 
ATOM    107  CD1 PHE A   3     -26.166  18.486 -17.165  0.00  0.00    -0.004 A 
ENDBRANCH 101 102
ENDBRANCH  72 101
ENDBRANCH  68  72
ENDBRANCH  67  70
BRANCH  67 108
ATOM    108  CB  ASN A   4     -26.599  24.542 -20.339  0.00  0.00    +0.114 C 
BRANCH 108 109
ATOM    109  CG  ASN A   4     -25.069  24.543 -20.367  0.00  0.00    +0.222 C 
ATOM    110  OD1 ASN A   4     -24.375  24.787 -19.344  0.00  0.00    -0.275 OA
ATOM    111  ND2 ASN A   4     -24.533  24.269 -21.528  0.00  0.00    -0.329 N 
ATOM    112 HD21 ASN A   4     -23.498  24.247 -21.631  0.00  0.00    +0.145 HD
ATOM    113 HD22 ASN A   4     -25.141  24.073 -22.348  0.00  0.00    +0.145 HD
ENDBRANCH 108 109
ENDBRANCH  67 108
ENDBRANCH  63  67
ENDBRANCH  62  64
BRANCH  62 114
ATOM    114  CB  MET A   5     -31.448  23.336 -20.145  0.00  0.00    +0.041 C 
BRANCH 114 115
ATOM    115  CG  MET A   5     -31.020  24.107 -21.364  0.00  0.00    +0.060 C 
BRANCH 115 116
ATOM    116  SD  MET A   5     -31.796  23.407 -22.885  0.00  0.00    -0.139 S 
ATOM    117  CE  MET A   5     -30.917  21.837 -23.145  0.00  0.00    +0.069 C 
ENDBRANCH 115 116
ENDBRANCH 114 115
ENDBRANCH  62 114
ENDBRANCH   1  62
TORSDOF 48
REMARK  Name = ../refined-set-2016/3dgo/3dgo_pocket.pdb
REMARK  136 active torsions:
REMARK  status: ('A' for Active; 'I' for Inactive)
REMARK    1  A    between atoms: _1  and  _3
REMARK    2  A    between atoms: _3  and  _4
REMARK    3  A    between atoms: _3  and  _6
REMARK    4  A    between atoms: _8  and  _10
REMARK    5  A    between atoms: _10  and  _11
REMARK    6  A    between atoms: _10  and  _13
REMARK    7  A    between atoms: _16  and  _18
REMARK    8  A    between atoms: _18  and  _19
REMARK    9  A    between atoms: _18  and  _21
REMARK   10  A    between atoms: _21  and  _22
REMARK   11  A    between atoms: _22  and  _23
REMARK   12  A    between atoms: _23  and  _24
REMARK   13  A    between atoms: _24  and  _25
REMARK   14  A    between atoms: _30  and  _31
REMARK   15  A    between atoms: _36  and  _38
REMARK   16  A    between atoms: _38  and  _39
REMARK   17  A    between atoms: _38  and  _41
REMARK   18  A    between atoms: _41  and  _42
REMARK   19  A    between atoms: _42  and  _43
REMARK   20  A    between atoms: _43  and  _44
REMARK   21  A    between atoms: _53  and  _55
REMARK   22  A    between atoms: _55  and  _56
REMARK   23  A    between atoms: _55  and  _58
REMARK   24  A    between atoms: _58  and  _59
REMARK   25  A    between atoms: _62  and  _64
REMARK   26  A    between atoms: _64  and  _65
REMARK   27  A    between atoms: _64  and  _67
REMARK   28  A    between atoms: _67  and  _68
REMARK   29  A    between atoms: _78  and  _80
REMARK   30  A    between atoms: _80  and  _81
REMARK   31  A    between atoms: _80  and  _83
REMARK   32  A    between atoms: _83  and  _84
REMARK   33  A    between atoms: _84  and  _85
REMARK   34  A    between atoms: _85  and  _86
REMARK   35  A    between atoms: _86  and  _87
REMARK   36  A    between atoms: _91  and  _93
REMARK   37  A    between atoms: _93  and  _94
REMARK   38  A    between atoms: _93  and  _96
REMARK   39  A    between atoms: _96  and  _97
REMARK   40  A    between atoms: _97  and  _98
REMARK   41  A    between atoms: _98  and  _99
REMARK   42  A    between atoms: _99  and  _100
REMARK   43  A    between atoms: _104  and  _106
REMARK   44  A    between atoms: _106  and  _107
REMARK   45  A    between atoms: _106  and  _109
REMARK   46  A    between atoms: _109  and  _110
REMARK   47  A    between atoms: _110  and  _111
REMARK   48  A    between atoms: _111  and  _112
REMARK   49  A    between atoms: _121  and  _123
REMARK   50  A    between atoms: _123  and  _124
REMARK   51  A    between atoms: _123  and  _126
REMARK   52  A    between atoms: _126  and  _127
REMARK   53  A    between atoms: _130  and  _132
REMARK   54  A    between atoms: _132  and  _133
REMARK   55  A    between atoms: _132  and  _135
REMARK   56  A    between atoms: _135  and  _136
REMARK   57  A    between atoms: _142  and  _144
REMARK   58  A    between atoms: _144  and  _145
REMARK   59  A    between atoms: _144  and  _147
REMARK   60  A    between atoms: _147  and  _148
REMARK   61  A    between atoms: _153  and  _155
REMARK   62  A    between atoms: _155  and  _156
REMARK   63  A    between atoms: _155  and  _158
REMARK   64  A    between atoms: _158  and  _159
REMARK   65  A    between atoms: _159  and  _160
REMARK   66  A    between atoms: _162  and  _164
REMARK   67  A    between atoms: _164  and  _165
REMARK   68  A    between atoms: _164  and  _167
REMARK   69  A    between atoms: _169  and  _171
REMARK   70  A    between atoms: _171  and  _172
REMARK   71  A    between atoms: _171  and  _174
REMARK   72  A    between atoms: _174  and  _175
REMARK   73  A    between atoms: _175  and  _176
REMARK   74  A    between atoms: _176  and  _177
REMARK   75  A    between atoms: _177  and  _178
REMARK   76  A    between atoms: _182  and  _184
REMARK   77  A    between atoms: _184  and  _185
REMARK   78  A    between atoms: _184  and  _187
REMARK   79  A    between atoms: _187  and  _188
REMARK   80  A    between atoms: _191  and  _193
REMARK   81  A    between atoms: _193  and  _194
REMARK   82  A    between atoms: _193  and  _196
REMARK   83  A    between atoms: _198  and  _200
REMARK   84  A    between atoms: _200  and  _201
REMARK   85  A    between atoms: _200  and  _203
REMARK   86  A    between atoms: _203  and  _204
REMARK   87  A    between atoms: _210  and  _212
REMARK   88  A    between atoms: _212  and  _213
REMARK   89  A    between atoms: _212  and  _215
REMARK   90  A    between atoms: _215  and  _216
REMARK   91  A    between atoms: _221  and  _223
REMARK   92  A    between atoms: _223  and  _224
REMARK   93  A    between atoms: _223  and  _226
REMARK   94  A    between atoms: _226  and  _227
REMARK   95  A    between atoms: _229  and  _231
REMARK   96  A    between atoms: _231  and  _232
REMARK   97  A    between atoms: _231  and  _234
REMARK   98  A    between atoms: _234  and  _235
REMARK   99  A    between atoms: _238  and  _240
REMARK  100  A    between atoms: _240  and  _241
REMARK  101  A    between atoms: _240  and  _243
REMARK  102  A    between atoms: _243  and  _244
REMARK  103  A    between atoms: _247  and  _249
REMARK  104  A    between atoms: _249  and  _250
REMARK  105  A    between atoms: _249  and  _252
REMARK  106  A    between atoms: _252  and  _253
REMARK  107  A    between atoms: _256  and  _258
REMARK  108  A    between atoms: _258  and  _259
REMARK  109  A    between atoms: _258  and  _261
REMARK  110  A    between atoms: _261  and  _262
REMARK  111  A    between atoms: _267  and  _268
REMARK  112  A    between atoms: _270  and  _272
REMARK  113  A    between atoms: _272  and  _273
REMARK  114  A    between atoms: _272  and  _275
REMARK  115  A    between atoms: _275  and  _276
REMARK  116  A    between atoms: _281  and  _283
REMARK  117  A    between atoms: _283  and  _284
REMARK  118  A    between atoms: _286  and  _288
REMARK  119  A    between atoms: _288  and  _289
REMARK  120  A    between atoms: _288  and  _291
REMARK  121  A    between atoms: _291  and  _292
REMARK  122  A    between atoms: _297  and  _299
REMARK  123  A    between atoms: _299  and  _300
REMARK  124  A    between atoms: _299  and  _302
REMARK  125  A    between atoms: _305  and  _307
REMARK  126  A    between atoms: _307  and  _308
REMARK  127  A    between atoms: _307  and  _310
REMARK  128  A    between atoms: _310  and  _311
REMARK  129  A    between atoms: _314  and  _316
REMARK  130  A    between atoms: _316  and  _317
REMARK  131  A    between atoms: _316  and  _319
REMARK  132  A    between atoms: _319  and  _320
REMARK  133  A    between atoms: _323  and  _325
REMARK  134  A    between atoms: _325  and  _326
REMARK  135  A    between atoms: _325  and  _328
REMARK  136  A    between atoms: _328  and  _329
REMARK                            x       y       z     vdW  Elec       q    Type
REMARK                         _______ _______ _______ _____ _____    ______ ____
ROOT
ATOM      1  C   SER A   1     -34.411  18.694 -27.464  0.00  0.00    +0.241 C 
ATOM      2  N   ILE A   2     -34.465  17.573 -26.749  0.00  0.00    -0.298 N 
ATOM      3  H   ILE A   2     -34.584  17.627 -25.717  0.00  0.00    +0.150 HD
ATOM      4  O   SER A   1     -34.211  18.684 -28.699  0.00  0.00    -0.274 OA
ENDROOT
BRANCH   1   5
ATOM      5  CA  SER A   1     -34.619  20.021 -26.713  0.00  0.00    +0.174 C 
BRANCH   5   6
ATOM      6  N   SER A   1     -35.638  19.916 -25.668  0.00  0.00    -0.236 NA
ATOM      7  H   SER A   1     -35.398  20.163 -24.687  0.00  0.00    +0.142 HD
ENDBRANCH   5   6
BRANCH   5   8
ATOM      8  CB  SER A   1     -33.283  20.556 -26.137  0.00  0.00    +0.163 C 
BRANCH   8   9
ATOM      9  OG  SER A   1     -32.519  19.575 -25.417  0.00  0.00    -0.380 OA
ATOM     10  H   SER A   1     -33.052  19.239 -24.653  0.00  0.00    +0.211 HD
ENDBRANCH   8   9
ENDBRANCH   5   8
ENDBRANCH   1   5
BRANCH   2  11
ATOM     11  CA  ILE A   2     -34.361  16.283 -27.387  0.00  0.00    +0.137 C 
BRANCH  11  12
ATOM     12  CB  ILE A   2     -34.390  15.108 -26.317  0.00  0.00    +0.026 C 
ATOM     13  CG2 ILE A   2     -34.322  13.705 -27.019  0.00  0.00    +0.002 C 
BRANCH  12  14
ATOM     14  CG1 ILE A   2     -33.231  15.230 -25.292  0.00  0.00    +0.002 C 
ATOM     15  CD1 ILE A   2     -31.861  15.150 -25.987  0.00  0.00    +0.000 C 
ENDBRANCH  12  14
ENDBRANCH  11  12
BRANCH  11  16
ATOM     16  C   ILE A   2     -35.517  16.088 -28.383  0.00  0.00    +0.227 C 
ATOM     17  O   ILE A   2     -35.311  15.732 -29.563  0.00  0.00    -0.286 OA
ENDBRANCH  11  16
ENDBRANCH   2  11
TORSDOF 8
REMARK  Name = ../refined-set-2016/3dgo/3dgo_pocket.pdb
REMARK  136 active torsions:
REMARK  status: ('A' for Active; 'I' for Inactive)
REMARK    1  A    between atoms: _1  and  _3
REMARK    2  A    between atoms: _3  and  _4
REMARK    3  A    between atoms: _3  and  _6
REMARK    4  A    between atoms: _8  and  _10
REMARK    5  A    between atoms: _10  and  _11
REMARK    6  A    between atoms: _10  and  _13
REMARK    7  A    between atoms: _16  and  _18
REMARK    8  A    between atoms: _18  and  _19
REMARK    9  A    between atoms: _18  and  _21
REMARK   10  A    between atoms: _21  and  _22
REMARK   11  A    between atoms: _22  and  _23
REMARK   12  A    between atoms: _23  and  _24
REMARK   13  A    between atoms: _24  and  _25
REMARK   14  A    between atoms: _30  and  _31
REMARK   15  A    between atoms: _36  and  _38
REMARK   16  A    between atoms: _38  and  _39
REMARK   17  A    between atoms: _38  and  _41
REMARK   18  A    between atoms: _41  and  _42
REMARK   19  A    between atoms: _42  and  _43
REMARK   20  A    between atoms: _43  and  _44
REMARK   21  A    between atoms: _53  and  _55
REMARK   22  A    between atoms: _55  and  _56
REMARK   23  A    between atoms: _55  and  _58
REMARK   24  A    between atoms: _58  and  _59
REMARK   25  A    between atoms: _62  and  _64
REMARK   26  A    between atoms: _64  and  _65
REMARK   27  A    between atoms: _64  and  _67
REMARK   28  A    between atoms: _67  and  _68
REMARK   29  A    between atoms: _78  and  _80
REMARK   30  A    between atoms: _80  and  _81
REMARK   31  A    between atoms: _80  and  _83
REMARK   32  A    between atoms: _83  and  _84
REMARK   33  A    between atoms: _84  and  _85
REMARK   34  A    between atoms: _85  and  _86
REMARK   35  A    between atoms: _86  and  _87
REMARK   36  A    between atoms: _91  and  _93
REMARK   37  A    between atoms: _93  and  _94
REMARK   38  A    between atoms: _93  and  _96
REMARK   39  A    between atoms: _96  and  _97
REMARK   40  A    between atoms: _97  and  _98
REMARK   41  A    between atoms: _98  and  _99
REMARK   42  A    between atoms: _99  and  _100
REMARK   43  A    between atoms: _104  and  _106
REMARK   44  A    between atoms: _106  and  _107
REMARK   45  A    between atoms: _106  and  _109
REMARK   46  A    between atoms: _109  and  _110
REMARK   47  A    between atoms: _110  and  _111
REMARK   48  A    between atoms: _111  and  _112
REMARK   49  A    between atoms: _121  and  _123
REMARK   50  A    between atoms: _123  and  _124
REMARK   51  A    between atoms: _123  and  _126
REMARK   52  A    between atoms: _126  and  _127
REMARK   53  A    between atoms: _130  and  _132
REMARK   54  A    between atoms: _132  and  _133
REMARK   55  A    between atoms: _132  and  _135
REMARK   56  A    between atoms: _135  and  _136
REMARK   57  A    between atoms: _142  and  _144
REMARK   58  A    between atoms: _144  and  _145
REMARK   59  A    between atoms: _144  and  _147
REMARK   60  A    between atoms: _147  and  _148
REMARK   61  A    between atoms: _153  and  _155
REMARK   62  A    between atoms: _155  and  _156
REMARK   63  A    between atoms: _155  and  _158
REMARK   64  A    between atoms: _158  and  _159
REMARK   65  A    between atoms: _159  and  _160
REMARK   66  A    between atoms: _162  and  _164
REMARK   67  A    between atoms: _164  and  _165
REMARK   68  A    between atoms: _164  and  _167
REMARK   69  A    between atoms: _169  and  _171
REMARK   70  A    between atoms: _171  and  _172
REMARK   71  A    between atoms: _171  and  _174
REMARK   72  A    between atoms: _174  and  _175
REMARK   73  A    between atoms: _175  and  _176
REMARK   74  A    between atoms: _176  and  _177
REMARK   75  A    between atoms: _177  and  _178
REMARK   76  A    between atoms: _182  and  _184
REMARK   77  A    between atoms: _184  and  _185
REMARK   78  A    between atoms: _184  and  _187
REMARK   79  A    between atoms: _187  and  _188
REMARK   80  A    between atoms: _191  and  _193
REMARK   81  A    between atoms: _193  and  _194
REMARK   82  A    between atoms: _193  and  _196
REMARK   83  A    between atoms: _198  and  _200
REMARK   84  A    between atoms: _200  and  _201
REMARK   85  A    between atoms: _200  and  _203
REMARK   86  A    between atoms: _203  and  _204
REMARK   87  A    between atoms: _210  and  _212
REMARK   88  A    between atoms: _212  and  _213
REMARK   89  A    between atoms: _212  and  _215
REMARK   90  A    between atoms: _215  and  _216
REMARK   91  A    between atoms: _221  and  _223
REMARK   92  A    between atoms: _223  and  _224
REMARK   93  A    between atoms: _223  and  _226
REMARK   94  A    between atoms: _226  and  _227
REMARK   95  A    between atoms: _229  and  _231
REMARK   96  A    between atoms: _231  and  _232
REMARK   97  A    between atoms: _231  and  _234
REMARK   98  A    between atoms: _234  and  _235
REMARK   99  A    between atoms: _238  and  _240
REMARK  100  A    between atoms: _240  and  _241
REMARK  101  A    between atoms: _240  and  _243
REMARK  102  A    between atoms: _243  and  _244
REMARK  103  A    between atoms: _247  and  _249
REMARK  104  A    between atoms: _249  and  _250
REMARK  105  A    between atoms: _249  and  _252
REMARK  106  A    between atoms: _252  and  _253
REMARK  107  A    between atoms: _256  and  _258
REMARK  108  A    between atoms: _258  and  _259
REMARK  109  A    between atoms: _258  and  _261
REMARK  110  A    between atoms: _261  and  _262
REMARK  111  A    between atoms: _267  and  _268
REMARK  112  A    between atoms: _270  and  _272
REMARK  113  A    between atoms: _272  and  _273
REMARK  114  A    between atoms: _272  and  _275
REMARK  115  A    between atoms: _275  and  _276
REMARK  116  A    between atoms: _281  and  _283
REMARK  117  A    between atoms: _283  and  _284
REMARK  118  A    between atoms: _286  and  _288
REMARK  119  A    between atoms: _288  and  _289
REMARK  120  A    between atoms: _288  and  _291
REMARK  121  A    between atoms: _291  and  _292
REMARK  122  A    between atoms: _297  and  _299
REMARK  123  A    between atoms: _299  and  _300
REMARK  124  A    between atoms: _299  and  _302
REMARK  125  A    between atoms: _305  and  _307
REMARK  126  A    between atoms: _307  and  _308
REMARK  127  A    between atoms: _307  and  _310
REMARK  128  A    between atoms: _310  and  _311
REMARK  129  A    between atoms: _314  and  _316
REMARK  130  A    between atoms: _316  and  _317
REMARK  131  A    between atoms: _316  and  _319
REMARK  132  A    between atoms: _319  and  _320
REMARK  133  A    between atoms: _323  and  _325
REMARK  134  A    between atoms: _325  and  _326
REMARK  135  A    between atoms: _325  and  _328
REMARK  136  A    between atoms: _328  and  _329
REMARK                            x       y       z     vdW  Elec       q    Type
REMARK                         _______ _______ _______ _____ _____    ______ ____
ROOT
ATOM      1  CA  HIS A   4     -26.551  20.782 -24.193  0.00  0.00    +0.155 C 
ENDROOT
BRANCH   1   4
ATOM      2  C   TYR A   3     -27.275  23.126 -24.376  0.00  0.00    +0.241 C 
ATOM      3  O   TYR A   3     -27.209  23.356 -23.167  0.00  0.00    -0.273 OA
ATOM      4  N   HIS A   4     -26.973  21.953 -24.933  0.00  0.00    -0.297 N 
ATOM      5  H   HIS A   4     -27.045  21.874 -25.967  0.00  0.00    +0.150 HD
BRANCH   2   6
ATOM      6  CA  TYR A   3     -27.751  24.224 -25.333  0.00  0.00    +0.153 C 
BRANCH   6   8
ATOM      7  C   THR A   2     -26.998  24.034 -27.658  0.00  0.00    +0.243 C 
ATOM      8  N   TYR A   3     -27.940  23.781 -26.722  0.00  0.00    -0.297 N 
ATOM      9  H   TYR A   3     -28.806  23.269 -26.987  0.00  0.00    +0.150 HD
ATOM     10  O   THR A   2     -25.927  24.569 -27.414  0.00  0.00    -0.273 OA
BRANCH   7  11
ATOM     11  CA  THR A   2     -27.316  23.729 -29.091  0.00  0.00    +0.176 C 
BRANCH  11  14
ATOM     12  C   ASP A   1     -27.674  21.315 -28.789  0.00  0.00    +0.239 C 
ATOM     13  O   ASP A   1     -26.658  21.232 -28.091  0.00  0.00    -0.274 OA
ATOM     14  N   THR A   2     -28.096  22.477 -29.243  0.00  0.00    -0.295 N 
ATOM     15  H   THR A   2     -29.015  22.518 -29.728  0.00  0.00    +0.150 HD
BRANCH  12  16
ATOM     16  CA  ASP A   1     -28.556  20.079 -29.137  0.00  0.00    +0.156 C 
BRANCH  16  17
ATOM     17  N   ASP A   1     -29.543  20.391 -30.124  0.00  0.00    -0.238 NA
ATOM     18  H   ASP A   1     -29.271  20.527 -31.119  0.00  0.00    +0.142 HD
ENDBRANCH  16  17
BRANCH  16  19
ATOM     19  CB  ASP A   1     -27.753  18.823 -29.599  0.00  0.00    +0.140 C 
BRANCH  19  20
ATOM     20  CG  ASP A   1     -26.675  19.162 -30.660  0.00  0.00    +0.367 C 
ATOM     21  OD2 ASP A   1     -25.843  18.260 -30.945  0.00  0.00    -0.246 OA
ATOM     22  OD1 ASP A   1     -26.625  20.335 -31.186  0.00  0.00    -0.246 OA
ENDBRANCH  19  20
ENDBRANCH  16  19
ENDBRANCH  12  16
ENDBRANCH  11  14
BRANCH  11  23
ATOM     23  CB  THR A   2     -28.129  24.968 -29.586  0.00  0.00    +0.137 C 
ATOM     24  CG2 THR A   2     -27.370  26.298 -29.410  0.00  0.00    +0.034 C 
BRANCH  23  25
ATOM     25  OG1 THR A   2     -28.425  24.807 -30.954  0.00  0.00    -0.382 OA
ATOM     26  HG1 THR A   2     -28.961  23.984 -31.080  0.00  0.00    +0.210 HD
ENDBRANCH  23  25
ENDBRANCH  11  23
ENDBRANCH   7  11
ENDBRANCH   6   8
BRANCH   6  27
ATOM     27  CB  TYR A   3     -29.008  24.935 -24.805  0.00  0.00    +0.055 C 
BRANCH  27  28
ATOM     28  CG  TYR A   3     -29.344  26.180 -25.625  0.00  0.00    -0.020 A 
ATOM     29  CD2 TYR A   3     -28.560  27.344 -25.533  0.00  0.00    -0.001 A 
ATOM     30  CE2 TYR A   3     -28.846  28.468 -26.312  0.00  0.00    +0.036 A 
ATOM     31  CZ  TYR A   3     -29.937  28.428 -27.214  0.00  0.00    +0.134 A 
ATOM     32  CE1 TYR A   3     -30.716  27.285 -27.338  0.00  0.00    +0.036 A 
ATOM     33  CD1 TYR A   3     -30.392  26.162 -26.552  0.00  0.00    -0.001 A 
BRANCH  31  34
ATOM     34  OH  TYR A   3     -30.254  29.520 -28.000  0.00  0.00    -0.506 OA
ATOM     35  HH  TYR A   3     -31.177  29.815 -27.797  0.00  0.00    +0.292 HD
ENDBRANCH  31  34
ENDBRANCH  27  28
ENDBRANCH   6  27
ENDBRANCH   2   6
ENDBRANCH   1   4
BRANCH   1  36
ATOM     36  C   HIS A   4     -25.211  21.021 -23.575  0.00  0.00    +0.241 C 
ATOM     37  N   GLY A   5     -25.063  20.726 -22.285  0.00  0.00    -0.295 N 
ATOM     38  H   GLY A   5     -25.880  20.397 -21.732  0.00  0.00    +0.150 HD
ATOM     39  O   HIS A   4     -24.318  21.453 -24.257  0.00  0.00    -0.273 OA
BRANCH  37  40
ATOM     40  CA  GLY A   5     -23.749  20.863 -21.638  0.00  0.00    +0.176 C 
BRANCH  40  41
ATOM     41  C   GLY A   5     -23.889  21.148 -20.167  0.00  0.00    +0.243 C 
ATOM     42  N   HIS A   6     -22.728  21.392 -19.555  0.00  0.00    -0.297 N 
ATOM     43  H   HIS A   6     -21.855  21.446 -20.118  0.00  0.00    +0.150 HD
ATOM     44  O   GLY A   5     -25.030  21.179 -19.599  0.00  0.00    -0.273 OA
BRANCH  42  45
ATOM     45  CA  HIS A   6     -22.661  21.583 -18.122  0.00  0.00    +0.155 C 
BRANCH  45  46
ATOM     46  C   HIS A   6     -21.366  22.269 -17.779  0.00  0.00    +0.241 C 
ATOM     47  N   VAL A   7     -21.282  22.694 -16.520  0.00  0.00    -0.297 N 
ATOM     48  H   VAL A   7     -22.124  22.621 -15.914  0.00  0.00    +0.150 HD
ATOM     49  O   HIS A   6     -20.481  22.434 -18.626  0.00  0.00    -0.273 OA
BRANCH  47  50
ATOM     50  CA  VAL A   7     -20.074  23.252 -15.957  0.00  0.00    +0.149 C 
BRANCH  50  51
ATOM     51  C   VAL A   7     -19.952  22.590 -14.565  0.00  0.00    +0.241 C 
ATOM     52  O   VAL A   7     -20.943  22.591 -13.787  0.00  0.00    -0.273 OA
ATOM     53  N   ASP A   8     -18.780  22.005 -14.281  0.00  0.00    -0.298 N 
ATOM     54  H   ASP A   8     -18.064  21.966 -15.034  0.00  0.00    +0.150 HD
BRANCH  53  55
ATOM     55  CA  ASP A   8     -18.440  21.423 -12.998  0.00  0.00    +0.148 C 
BRANCH  55  56
ATOM     56  C   ASP A   8     -17.681  22.405 -12.099  0.00  0.00    +0.227 C 
ATOM     57  O   ASP A   8     -16.765  23.140 -12.547  0.00  0.00    -0.286 OA
ENDBRANCH  55  56
BRANCH  55  58
ATOM     58  CB  ASP A   8     -17.553  20.190 -13.193  0.00  0.00    +0.142 C 
BRANCH  58  59
ATOM     59  CG  ASP A   8     -18.257  19.087 -13.929  0.00  0.00    +0.367 C 
ATOM     60  OD2 ASP A   8     -19.482  19.056 -13.886  0.00  0.00    -0.246 OA
ATOM     61  OD1 ASP A   8     -17.588  18.257 -14.579  0.00  0.00    -0.246 OA
ENDBRANCH  58  59
ENDBRANCH  55  58
ENDBRANCH  53  55
ENDBRANCH  50  51
BRANCH  50  62
ATOM     62  CB  VAL A   7     -20.177  24.825 -15.835  0.00  0.00    +0.027 C 
ATOM     63  CG2 VAL A   7     -18.929  25.386 -15.212  0.00  0.00    +0.002 C 
ATOM     64  CG1 VAL A   7     -20.413  25.492 -17.225  0.00  0.00    +0.002 C 
ENDBRANCH  50  62
ENDBRANCH  47  50
ENDBRANCH  45  46
BRANCH  45  65
ATOM     65  CB  HIS A   6     -22.722  20.250 -17.411  0.00  0.00    +0.076 C 
BRANCH  65  66
ATOM     66  CG  HIS A   6     -21.618  19.330 -17.815  0.00  0.00    +0.082 A 
ATOM     67  CD2 HIS A   6     -20.392  19.103 -17.269  0.00  0.00    +0.115 A 
ATOM     68  NE2 HIS A   6     -19.786  18.126 -18.022  0.00  0.00    -0.221 NA
ATOM     69  CE1 HIS A   6     -20.591  17.791 -19.019  0.00  0.00    +0.199 A 
ATOM     70  ND1 HIS A   6     -21.702  18.506 -18.918  0.00  0.00    -0.227 NA
ENDBRANCH  65  66
ENDBRANCH  45  65
ENDBRANCH  42  45
ENDBRANCH  40  41
ENDBRANCH  37  40
ENDBRANCH   1  36
BRANCH   1  71
ATOM     71  CB  HIS A   4     -26.497  19.545 -25.127  0.00  0.00    +0.076 C 
BRANCH  71  72
ATOM     72  CG  HIS A   4     -27.860  19.042 -25.484  0.00  0.00    +0.082 A 
ATOM     73  CD2 HIS A   4     -29.087  19.590 -25.262  0.00  0.00    +0.115 A 
ATOM     74  NE2 HIS A   4     -30.013  18.722 -25.781  0.00  0.00    -0.221 NA
ATOM     75  CE1 HIS A   4     -29.383  17.676 -26.296  0.00  0.00    +0.199 A 
ATOM     76  ND1 HIS A   4     -28.081  17.838 -26.115  0.00  0.00    -0.227 NA
ENDBRANCH  71  72
ENDBRANCH   1  71
TORSDOF 30
REMARK  Name = ../refined-set-2016/3dgo/3dgo_pocket.pdb
REMARK  136 active torsions:
REMARK  status: ('A' for Active; 'I' for Inactive)
REMARK    1  A    between atoms: _1  and  _3
REMARK    2  A    between atoms: _3  and  _4
REMARK    3  A    between atoms: _3  and  _6
REMARK    4  A    between atoms: _8  and  _10
REMARK    5  A    between atoms: _10  and  _11
REMARK    6  A    between atoms: _10  and  _13
REMARK    7  A    between atoms: _16  and  _18
REMARK    8  A    between atoms: _18  and  _19
REMARK    9  A    between atoms: _18  and  _21
REMARK   10  A    between atoms: _21  and  _22
REMARK   11  A    between atoms: _22  and  _23
REMARK   12  A    between atoms: _23  and  _24
REMARK   13  A    between atoms: _24  and  _25
REMARK   14  A    between atoms: _30  and  _31
REMARK   15  A    between atoms: _36  and  _38
REMARK   16  A    between atoms: _38  and  _39
REMARK   17  A    between atoms: _38  and  _41
REMARK   18  A    between atoms: _41  and  _42
REMARK   19  A    between atoms: _42  and  _43
REMARK   20  A    between atoms: _43  and  _44
REMARK   21  A    between atoms: _53  and  _55
REMARK   22  A    between atoms: _55  and  _56
REMARK   23  A    between atoms: _55  and  _58
REMARK   24  A    between atoms: _58  and  _59
REMARK   25  A    between atoms: _62  and  _64
REMARK   26  A    between atoms: _64  and  _65
REMARK   27  A    between atoms: _64  and  _67
REMARK   28  A    between atoms: _67  and  _68
REMARK   29  A    between atoms: _78  and  _80
REMARK   30  A    between atoms: _80  and  _81
REMARK   31  A    between atoms: _80  and  _83
REMARK   32  A    between atoms: _83  and  _84
REMARK   33  A    between atoms: _84  and  _85
REMARK   34  A    between atoms: _85  and  _86
REMARK   35  A    between atoms: _86  and  _87
REMARK   36  A    between atoms: _91  and  _93
REMARK   37  A    between atoms: _93  and  _94
REMARK   38  A    between atoms: _93  and  _96
REMARK   39  A    between atoms: _96  and  _97
REMARK   40  A    between atoms: _97  and  _98
REMARK   41  A    between atoms: _98  and  _99
REMARK   42  A    between atoms: _99  and  _100
REMARK   43  A    between atoms: _104  and  _106
REMARK   44  A    between atoms: _106  and  _107
REMARK   45  A    between atoms: _106  and  _109
REMARK   46  A    between atoms: _109  and  _110
REMARK   47  A    between atoms: _110  and  _111
REMARK   48  A    between atoms: _111  and  _112
REMARK   49  A    between atoms: _121  and  _123
REMARK   50  A    between atoms: _123  and  _124
REMARK   51  A    between atoms: _123  and  _126
REMARK   52  A    between atoms: _126  and  _127
REMARK   53  A    between atoms: _130  and  _132
REMARK   54  A    between atoms: _132  and  _133
REMARK   55  A    between atoms: _132  and  _135
REMARK   56  A    between atoms: _135  and  _136
REMARK   57  A    between atoms: _142  and  _144
REMARK   58  A    between atoms: _144  and  _145
REMARK   59  A    between atoms: _144  and  _147
REMARK   60  A    between atoms: _147  and  _148
REMARK   61  A    between atoms: _153  and  _155
REMARK   62  A    between atoms: _155  and  _156
REMARK   63  A    between atoms: _155  and  _158
REMARK   64  A    between atoms: _158  and  _159
REMARK   65  A    between atoms: _159  and  _160
REMARK   66  A    between atoms: _162  and  _164
REMARK   67  A    between atoms: _164  and  _165
REMARK   68  A    between atoms: _164  and  _167
REMARK   69  A    between atoms: _169  and  _171
REMARK   70  A    between atoms: _171  and  _172
REMARK   71  A    between atoms: _171  and  _174
REMARK   72  A    between atoms: _174  and  _175
REMARK   73  A    between atoms: _175  and  _176
REMARK   74  A    between atoms: _176  and  _177
REMARK   75  A    between atoms: _177  and  _178
REMARK   76  A    between atoms: _182  and  _184
REMARK   77  A    between atoms: _184  and  _185
REMARK   78  A    between atoms: _184  and  _187
REMARK   79  A    between atoms: _187  and  _188
REMARK   80  A    between atoms: _191  and  _193
REMARK   81  A    between atoms: _193  and  _194
REMARK   82  A    between atoms: _193  and  _196
REMARK   83  A    between atoms: _198  and  _200
REMARK   84  A    between atoms: _200  and  _201
REMARK   85  A    between atoms: _200  and  _203
REMARK   86  A    between atoms: _203  and  _204
REMARK   87  A    between atoms: _210  and  _212
REMARK   88  A    between atoms: _212  and  _213
REMARK   89  A    between atoms: _212  and  _215
REMARK   90  A    between atoms: _215  and  _216
REMARK   91  A    between atoms: _221  and  _223
REMARK   92  A    between atoms: _223  and  _224
REMARK   93  A    between atoms: _223  and  _226
REMARK   94  A    between atoms: _226  and  _227
REMARK   95  A    between atoms: _229  and  _231
REMARK   96  A    between atoms: _231  and  _232
REMARK   97  A    between atoms: _231  and  _234
REMARK   98  A    between atoms: _234  and  _235
REMARK   99  A    between atoms: _238  and  _240
REMARK  100  A    between atoms: _240  and  _241
REMARK  101  A    between atoms: _240  and  _243
REMARK  102  A    between atoms: _243  and  _244
REMARK  103  A    between atoms: _247  and  _249
REMARK  104  A    between atoms: _249  and  _250
REMARK  105  A    between atoms: _249  and  _252
REMARK  106  A    between atoms: _252  and  _253
REMARK  107  A    between atoms: _256  and  _258
REMARK  108  A    between atoms: _258  and  _259
REMARK  109  A    between atoms: _258  and  _261
REMARK  110  A    between atoms: _261  and  _262
REMARK  111  A    between atoms: _267  and  _268
REMARK  112  A    between atoms: _270  and  _272
REMARK  113  A    between atoms: _272  and  _273
REMARK  114  A    between atoms: _272  and  _275
REMARK  115  A    between atoms: _275  and  _276
REMARK  116  A    between atoms: _281  and  _283
REMARK  117  A    between atoms: _283  and  _284
REMARK  118  A    between atoms: _286  and  _288
REMARK  119  A    between atoms: _288  and  _289
REMARK  120  A    between atoms: _288  and  _291
REMARK  121  A    between atoms: _291  and  _292
REMARK  122  A    between atoms: _297  and  _299
REMARK  123  A    between atoms: _299  and  _300
REMARK  124  A    between atoms: _299  and  _302
REMARK  125  A    between atoms: _305  and  _307
REMARK  126  A    between atoms: _307  and  _308
REMARK  127  A    between atoms: _307  and  _310
REMARK  128  A    between atoms: _310  and  _311
REMARK  129  A    between atoms: _314  and  _316
REMARK  130  A    between atoms: _316  and  _317
REMARK  131  A    between atoms: _316  and  _319
REMARK  132  A    between atoms: _319  and  _320
REMARK  133  A    between atoms: _323  and  _325
REMARK  134  A    between atoms: _325  and  _326
REMARK  135  A    between atoms: _325  and  _328
REMARK  136  A    between atoms: _328  and  _329
REMARK                            x       y       z     vdW  Elec       q    Type
REMARK                         _______ _______ _______ _____ _____    ______ ____
ROOT
ATOM      1  CA  ASP A   1     -18.757  25.495 -21.698  0.00  0.00    +0.144 C 
ENDROOT
BRANCH   1   2
ATOM      2  N   ASP A   1     -18.635  25.612 -23.184  0.00  0.00    -0.239 NA
ATOM      3  H   ASP A   1     -18.549  24.750 -23.760  0.00  0.00    +0.142 HD
ENDBRANCH   1   2
BRANCH   1   4
ATOM      4  C   ASP A   1     -17.529  25.988 -20.906  0.00  0.00    +0.225 C 
ATOM      5  O   ASP A   1     -17.710  26.536 -19.812  0.00  0.00    -0.287 OA
ENDBRANCH   1   4
BRANCH   1   6
ATOM      6  CB  ASP A   1     -19.201  24.082 -21.204  0.00  0.00    +0.139 C 
BRANCH   6   7
ATOM      7  CG  ASP A   1     -20.586  23.661 -21.714  0.00  0.00    +0.367 C 
ATOM      8  OD2 ASP A   1     -20.756  22.413 -21.882  0.00  0.00    -0.246 OA
ATOM      9  OD1 ASP A   1     -21.485  24.552 -21.919  0.00  0.00    -0.246 OA
ENDBRANCH   6   7
ENDBRANCH   1   6
TORSDOF 4
REMARK  Name = ../refined-set-2016/3dgo/3dgo_pocket.pdb
REMARK  136 active torsions:
REMARK  status: ('A' for Active; 'I' for Inactive)
REMARK    1  A    between atoms: _1  and  _3
REMARK    2  A    between atoms: _3  and  _4
REMARK    3  A    between atoms: _3  and  _6
REMARK    4  A    between atoms: _8  and  _10
REMARK    5  A    between atoms: _10  and  _11
REMARK    6  A    between atoms: _10  and  _13
REMARK    7  A    between atoms: _16  and  _18
REMARK    8  A    between atoms: _18  and  _19
REMARK    9  A    between atoms: _18  and  _21
REMARK   10  A    between atoms: _21  and  _22
REMARK   11  A    between atoms: _22  and  _23
REMARK   12  A    between atoms: _23  and  _24
REMARK   13  A    between atoms: _24  and  _25
REMARK   14  A    between atoms: _30  and  _31
REMARK   15  A    between atoms: _36  and  _38
REMARK   16  A    between atoms: _38  and  _39
REMARK   17  A    between atoms: _38  and  _41
REMARK   18  A    between atoms: _41  and  _42
REMARK   19  A    between atoms: _42  and  _43
REMARK   20  A    between atoms: _43  and  _44
REMARK   21  A    between atoms: _53  and  _55
REMARK   22  A    between atoms: _55  and  _56
REMARK   23  A    between atoms: _55  and  _58
REMARK   24  A    between atoms: _58  and  _59
REMARK   25  A    between atoms: _62  and  _64
REMARK   26  A    between atoms: _64  and  _65
REMARK   27  A    between atoms: _64  and  _67
REMARK   28  A    between atoms: _67  and  _68
REMARK   29  A    between atoms: _78  and  _80
REMARK   30  A    between atoms: _80  and  _81
REMARK   31  A    between atoms: _80  and  _83
REMARK   32  A    between atoms: _83  and  _84
REMARK   33  A    between atoms: _84  and  _85
REMARK   34  A    between atoms: _85  and  _86
REMARK   35  A    between atoms: _86  and  _87
REMARK   36  A    between atoms: _91  and  _93
REMARK   37  A    between atoms: _93  and  _94
REMARK   38  A    between atoms: _93  and  _96
REMARK   39  A    between atoms: _96  and  _97
REMARK   40  A    between atoms: _97  and  _98
REMARK   41  A    between atoms: _98  and  _99
REMARK   42  A    between atoms: _99  and  _100
REMARK   43  A    between atoms: _104  and  _106
REMARK   44  A    between atoms: _106  and  _107
REMARK   45  A    between atoms: _106  and  _109
REMARK   46  A    between atoms: _109  and  _110
REMARK   47  A    between atoms: _110  and  _111
REMARK   48  A    between atoms: _111  and  _112
REMARK   49  A    between atoms: _121  and  _123
REMARK   50  A    between atoms: _123  and  _124
REMARK   51  A    between atoms: _123  and  _126
REMARK   52  A    between atoms: _126  and  _127
REMARK   53  A    between atoms: _130  and  _132
REMARK   54  A    between atoms: _132  and  _133
REMARK   55  A    between atoms: _132  and  _135
REMARK   56  A    between atoms: _135  and  _136
REMARK   57  A    between atoms: _142  and  _144
REMARK   58  A    between atoms: _144  and  _145
REMARK   59  A    between atoms: _144  and  _147
REMARK   60  A    between atoms: _147  and  _148
REMARK   61  A    between atoms: _153  and  _155
REMARK   62  A    between atoms: _155  and  _156
REMARK   63  A    between atoms: _155  and  _158
REMARK   64  A    between atoms: _158  and  _159
REMARK   65  A    between atoms: _159  and  _160
REMARK   66  A    between atoms: _162  and  _164
REMARK   67  A    between atoms: _164  and  _165
REMARK   68  A    between atoms: _164  and  _167
REMARK   69  A    between atoms: _169  and  _171
REMARK   70  A    between atoms: _171  and  _172
REMARK   71  A    between atoms: _171  and  _174
REMARK   72  A    between atoms: _174  and  _175
REMARK   73  A    between atoms: _175  and  _176
REMARK   74  A    between atoms: _176  and  _177
REMARK   75  A    between atoms: _177  and  _178
REMARK   76  A    between atoms: _182  and  _184
REMARK   77  A    between atoms: _184  and  _185
REMARK   78  A    between atoms: _184  and  _187
REMARK   79  A    between atoms: _187  and  _188
REMARK   80  A    between atoms: _191  and  _193
REMARK   81  A    between atoms: _193  and  _194
REMARK   82  A    between atoms: _193  and  _196
REMARK   83  A    between atoms: _198  and  _200
REMARK   84  A    between atoms: _200  and  _201
REMARK   85  A    between atoms: _200  and  _203
REMARK   86  A    between atoms: _203  and  _204
REMARK   87  A    between atoms: _210  and  _212
REMARK   88  A    between atoms: _212  and  _213
REMARK   89  A    between atoms: _212  and  _215
REMARK   90  A    between atoms: _215  and  _216
REMARK   91  A    between atoms: _221  and  _223
REMARK   92  A    between atoms: _223  and  _224
REMARK   93  A    between atoms: _223  and  _226
REMARK   94  A    between atoms: _226  and  _227
REMARK   95  A    between atoms: _229  and  _231
REMARK   96  A    between atoms: _231  and  _232
REMARK   97  A    between atoms: _231  and  _234
REMARK   98  A    between atoms: _234  and  _235
REMARK   99  A    between atoms: _238  and  _240
REMARK  100  A    between atoms: _240  and  _241
REMARK  101  A    between atoms: _240  and  _243
REMARK  102  A    between atoms: _243  and  _244
REMARK  103  A    between atoms: _247  and  _249
REMARK  104  A    between atoms: _249  and  _250
REMARK  105  A    between atoms: _249  and  _252
REMARK  106  A    between atoms: _252  and  _253
REMARK  107  A    between atoms: _256  and  _258
REMARK  108  A    between atoms: _258  and  _259
REMARK  109  A    between atoms: _258  and  _261
REMARK  110  A    between atoms: _261  and  _262
REMARK  111  A    between atoms: _267  and  _268
REMARK  112  A    between atoms: _270  and  _272
REMARK  113  A    between atoms: _272  and  _273
REMARK  114  A    between atoms: _272  and  _275
REMARK  115  A    between atoms: _275  and  _276
REMARK  116  A    between atoms: _281  and  _283
REMARK  117  A    between atoms: _283  and  _284
REMARK  118  A    between atoms: _286  and  _288
REMARK  119  A    between atoms: _288  and  _289
REMARK  120  A    between atoms: _288  and  _291
REMARK  121  A    between atoms: _291  and  _292
REMARK  122  A    between atoms: _297  and  _299
REMARK  123  A    between atoms: _299  and  _300
REMARK  124  A    between atoms: _299  and  _302
REMARK  125  A    between atoms: _305  and  _307
REMARK  126  A    between atoms: _307  and  _308
REMARK  127  A    between atoms: _307  and  _310
REMARK  128  A    between atoms: _310  and  _311
REMARK  129  A    between atoms: _314  and  _316
REMARK  130  A    between atoms: _316  and  _317
REMARK  131  A    between atoms: _316  and  _319
REMARK  132  A    between atoms: _319  and  _320
REMARK  133  A    between atoms: _323  and  _325
REMARK  134  A    between atoms: _325  and  _326
REMARK  135  A    between atoms: _325  and  _328
REMARK  136  A    between atoms: _328  and  _329
REMARK                            x       y       z     vdW  Elec       q    Type
REMARK                         _______ _______ _______ _____ _____    ______ ____
ROOT
ATOM      1  CA  ASP A   1     -15.593  19.320 -17.204  0.00  0.00    +0.144 C 
ENDROOT
BRANCH   1   2
ATOM      2  N   ASP A   1     -15.369  20.701 -17.502  0.00  0.00    -0.239 NA
ATOM      3  H   ASP A   1     -14.540  20.994 -18.057  0.00  0.00    +0.142 HD
ENDBRANCH   1   2
BRANCH   1   4
ATOM      4  C   ASP A   1     -14.535  18.683 -16.287  0.00  0.00    +0.225 C 
ATOM      5  O   ASP A   1     -13.362  18.854 -16.586  0.00  0.00    -0.287 OA
ENDBRANCH   1   4
BRANCH   1   6
ATOM      6  CB  ASP A   1     -15.598  18.601 -18.533  0.00  0.00    +0.139 C 
BRANCH   6   7
ATOM      7  CG  ASP A   1     -16.221  17.257 -18.416  0.00  0.00    +0.367 C 
ATOM      8  OD2 ASP A   1     -15.764  16.405 -17.608  0.00  0.00    -0.246 OA
ATOM      9  OD1 ASP A   1     -17.220  17.066 -19.085  0.00  0.00    -0.246 OA
ENDBRANCH   6   7
ENDBRANCH   1   6
TORSDOF 4
REMARK  Name = ../refined-set-2016/3dgo/3dgo_pocket.pdb
REMARK  136 active torsions:
REMARK  status: ('A' for Active; 'I' for Inactive)
REMARK    1  A    between atoms: _1  and  _3
REMARK    2  A    between atoms: _3  and  _4
REMARK    3  A    between atoms: _3  and  _6
REMARK    4  A    between atoms: _8  and  _10
REMARK    5  A    between atoms: _10  and  _11
REMARK    6  A    between atoms: _10  and  _13
REMARK    7  A    between atoms: _16  and  _18
REMARK    8  A    between atoms: _18  and  _19
REMARK    9  A    between atoms: _18  and  _21
REMARK   10  A    between atoms: _21  and  _22
REMARK   11  A    between atoms: _22  and  _23
REMARK   12  A    between atoms: _23  and  _24
REMARK   13  A    between atoms: _24  and  _25
REMARK   14  A    between atoms: _30  and  _31
REMARK   15  A    between atoms: _36  and  _38
REMARK   16  A    between atoms: _38  and  _39
REMARK   17  A    between atoms: _38  and  _41
REMARK   18  A    between atoms: _41  and  _42
REMARK   19  A    between atoms: _42  and  _43
REMARK   20  A    between atoms: _43  and  _44
REMARK   21  A    between atoms: _53  and  _55
REMARK   22  A    between atoms: _55  and  _56
REMARK   23  A    between atoms: _55  and  _58
REMARK   24  A    between atoms: _58  and  _59
REMARK   25  A    between atoms: _62  and  _64
REMARK   26  A    between atoms: _64  and  _65
REMARK   27  A    between atoms: _64  and  _67
REMARK   28  A    between atoms: _67  and  _68
REMARK   29  A    between atoms: _78  and  _80
REMARK   30  A    between atoms: _80  and  _81
REMARK   31  A    between atoms: _80  and  _83
REMARK   32  A    between atoms: _83  and  _84
REMARK   33  A    between atoms: _84  and  _85
REMARK   34  A    between atoms: _85  and  _86
REMARK   35  A    between atoms: _86  and  _87
REMARK   36  A    between atoms: _91  and  _93
REMARK   37  A    between atoms: _93  and  _94
REMARK   38  A    between atoms: _93  and  _96
REMARK   39  A    between atoms: _96  and  _97
REMARK   40  A    between atoms: _97  and  _98
REMARK   41  A    between atoms: _98  and  _99
REMARK   42  A    between atoms: _99  and  _100
REMARK   43  A    between atoms: _104  and  _106
REMARK   44  A    between atoms: _106  and  _107
REMARK   45  A    between atoms: _106  and  _109
REMARK   46  A    between atoms: _109  and  _110
REMARK   47  A    between atoms: _110  and  _111
REMARK   48  A    between atoms: _111  and  _112
REMARK   49  A    between atoms: _121  and  _123
REMARK   50  A    between atoms: _123  and  _124
REMARK   51  A    between atoms: _123  and  _126
REMARK   52  A    between atoms: _126  and  _127
REMARK   53  A    between atoms: _130  and  _132
REMARK   54  A    between atoms: _132  and  _133
REMARK   55  A    between atoms: _132  and  _135
REMARK   56  A    between atoms: _135  and  _136
REMARK   57  A    between atoms: _142  and  _144
REMARK   58  A    between atoms: _144  and  _145
REMARK   59  A    between atoms: _144  and  _147
REMARK   60  A    between atoms: _147  and  _148
REMARK   61  A    between atoms: _153  and  _155
REMARK   62  A    between atoms: _155  and  _156
REMARK   63  A    between atoms: _155  and  _158
REMARK   64  A    between atoms: _158  and  _159
REMARK   65  A    between atoms: _159  and  _160
REMARK   66  A    between atoms: _162  and  _164
REMARK   67  A    between atoms: _164  and  _165
REMARK   68  A    between atoms: _164  and  _167
REMARK   69  A    between atoms: _169  and  _171
REMARK   70  A    between atoms: _171  and  _172
REMARK   71  A    between atoms: _171  and  _174
REMARK   72  A    between atoms: _174  and  _175
REMARK   73  A    between atoms: _175  and  _176
REMARK   74  A    between atoms: _176  and  _177
REMARK   75  A    between atoms: _177  and  _178
REMARK   76  A    between atoms: _182  and  _184
REMARK   77  A    between atoms: _184  and  _185
REMARK   78  A    between atoms: _184  and  _187
REMARK   79  A    between atoms: _187  and  _188
REMARK   80  A    between atoms: _191  and  _193
REMARK   81  A    between atoms: _193  and  _194
REMARK   82  A    between atoms: _193  and  _196
REMARK   83  A    between atoms: _198  and  _200
REMARK   84  A    between atoms: _200  and  _201
REMARK   85  A    between atoms: _200  and  _203
REMARK   86  A    between atoms: _203  and  _204
REMARK   87  A    between atoms: _210  and  _212
REMARK   88  A    between atoms: _212  and  _213
REMARK   89  A    between atoms: _212  and  _215
REMARK   90  A    between atoms: _215  and  _216
REMARK   91  A    between atoms: _221  and  _223
REMARK   92  A    between atoms: _223  and  _224
REMARK   93  A    between atoms: _223  and  _226
REMARK   94  A    between atoms: _226  and  _227
REMARK   95  A    between atoms: _229  and  _231
REMARK   96  A    between atoms: _231  and  _232
REMARK   97  A    between atoms: _231  and  _234
REMARK   98  A    between atoms: _234  and  _235
REMARK   99  A    between atoms: _238  and  _240
REMARK  100  A    between atoms: _240  and  _241
REMARK  101  A    between atoms: _240  and  _243
REMARK  102  A    between atoms: _243  and  _244
REMARK  103  A    between atoms: _247  and  _249
REMARK  104  A    between atoms: _249  and  _250
REMARK  105  A    between atoms: _249  and  _252
REMARK  106  A    between atoms: _252  and  _253
REMARK  107  A    between atoms: _256  and  _258
REMARK  108  A    between atoms: _258  and  _259
REMARK  109  A    between atoms: _258  and  _261
REMARK  110  A    between atoms: _261  and  _262
REMARK  111  A    between atoms: _267  and  _268
REMARK  112  A    between atoms: _270  and  _272
REMARK  113  A    between atoms: _272  and  _273
REMARK  114  A    between atoms: _272  and  _275
REMARK  115  A    between atoms: _275  and  _276
REMARK  116  A    between atoms: _281  and  _283
REMARK  117  A    between atoms: _283  and  _284
REMARK  118  A    between atoms: _286  and  _288
REMARK  119  A    between atoms: _288  and  _289
REMARK  120  A    between atoms: _288  and  _291
REMARK  121  A    between atoms: _291  and  _292
REMARK  122  A    between atoms: _297  and  _299
REMARK  123  A    between atoms: _299  and  _300
REMARK  124  A    between atoms: _299  and  _302
REMARK  125  A    between atoms: _305  and  _307
REMARK  126  A    between atoms: _307  and  _308
REMARK  127  A    between atoms: _307  and  _310
REMARK  128  A    between atoms: _310  and  _311
REMARK  129  A    between atoms: _314  and  _316
REMARK  130  A    between atoms: _316  and  _317
REMARK  131  A    between atoms: _316  and  _319
REMARK  132  A    between atoms: _319  and  _320
REMARK  133  A    between atoms: _323  and  _325
REMARK  134  A    between atoms: _325  and  _326
REMARK  135  A    between atoms: _325  and  _328
REMARK  136  A    between atoms: _328  and  _329
REMARK                            x       y       z     vdW  Elec       q    Type
REMARK                         _______ _______ _______ _____ _____    ______ ____
ROOT
ATOM      1  O   HOH     1     -24.065  25.269 -16.587  0.00  0.00    +0.000 OA
ENDROOT
TORSDOF 0
REMARK  Name = ../refined-set-2016/3dgo/3dgo_pocket.pdb
REMARK  136 active torsions:
REMARK  status: ('A' for Active; 'I' for Inactive)
REMARK    1  A    between atoms: _1  and  _3
REMARK    2  A    between atoms: _3  and  _4
REMARK    3  A    between atoms: _3  and  _6
REMARK    4  A    between atoms: _8  and  _10
REMARK    5  A    between atoms: _10  and  _11
REMARK    6  A    between atoms: _10  and  _13
REMARK    7  A    between atoms: _16  and  _18
REMARK    8  A    between atoms: _18  and  _19
REMARK    9  A    between atoms: _18  and  _21
REMARK   10  A    between atoms: _21  and  _22
REMARK   11  A    between atoms: _22  and  _23
REMARK   12  A    between atoms: _23  and  _24
REMARK   13  A    between atoms: _24  and  _25
REMARK   14  A    between atoms: _30  and  _31
REMARK   15  A    between atoms: _36  and  _38
REMARK   16  A    between atoms: _38  and  _39
REMARK   17  A    between atoms: _38  and  _41
REMARK   18  A    between atoms: _41  and  _42
REMARK   19  A    between atoms: _42  and  _43
REMARK   20  A    between atoms: _43  and  _44
REMARK   21  A    between atoms: _53  and  _55
REMARK   22  A    between atoms: _55  and  _56
REMARK   23  A    between atoms: _55  and  _58
REMARK   24  A    between atoms: _58  and  _59
REMARK   25  A    between atoms: _62  and  _64
REMARK   26  A    between atoms: _64  and  _65
REMARK   27  A    between atoms: _64  and  _67
REMARK   28  A    between atoms: _67  and  _68
REMARK   29  A    between atoms: _78  and  _80
REMARK   30  A    between atoms: _80  and  _81
REMARK   31  A    between atoms: _80  and  _83
REMARK   32  A    between atoms: _83  and  _84
REMARK   33  A    between atoms: _84  and  _85
REMARK   34  A    between atoms: _85  and  _86
REMARK   35  A    between atoms: _86  and  _87
REMARK   36  A    between atoms: _91  and  _93
REMARK   37  A    between atoms: _93  and  _94
REMARK   38  A    between atoms: _93  and  _96
REMARK   39  A    between atoms: _96  and  _97
REMARK   40  A    between atoms: _97  and  _98
REMARK   41  A    between atoms: _98  and  _99
REMARK   42  A    between atoms: _99  and  _100
REMARK   43  A    between atoms: _104  and  _106
REMARK   44  A    between atoms: _106  and  _107
REMARK   45  A    between atoms: _106  and  _109
REMARK   46  A    between atoms: _109  and  _110
REMARK   47  A    between atoms: _110  and  _111
REMARK   48  A    between atoms: _111  and  _112
REMARK   49  A    between atoms: _121  and  _123
REMARK   50  A    between atoms: _123  and  _124
REMARK   51  A    between atoms: _123  and  _126
REMARK   52  A    between atoms: _126  and  _127
REMARK   53  A    between atoms: _130  and  _132
REMARK   54  A    between atoms: _132  and  _133
REMARK   55  A    between atoms: _132  and  _135
REMARK   56  A    between atoms: _135  and  _136
REMARK   57  A    between atoms: _142  and  _144
REMARK   58  A    between atoms: _144  and  _145
REMARK   59  A    between atoms: _144  and  _147
REMARK   60  A    between atoms: _147  and  _148
REMARK   61  A    between atoms: _153  and  _155
REMARK   62  A    between atoms: _155  and  _156
REMARK   63  A    between atoms: _155  and  _158
REMARK   64  A    between atoms: _158  and  _159
REMARK   65  A    between atoms: _159  and  _160
REMARK   66  A    between atoms: _162  and  _164
REMARK   67  A    between atoms: _164  and  _165
REMARK   68  A    between atoms: _164  and  _167
REMARK   69  A    between atoms: _169  and  _171
REMARK   70  A    between atoms: _171  and  _172
REMARK   71  A    between atoms: _171  and  _174
REMARK   72  A    between atoms: _174  and  _175
REMARK   73  A    between atoms: _175  and  _176
REMARK   74  A    between atoms: _176  and  _177
REMARK   75  A    between atoms: _177  and  _178
REMARK   76  A    between atoms: _182  and  _184
REMARK   77  A    between atoms: _184  and  _185
REMARK   78  A    between atoms: _184  and  _187
REMARK   79  A    between atoms: _187  and  _188
REMARK   80  A    between atoms: _191  and  _193
REMARK   81  A    between atoms: _193  and  _194
REMARK   82  A    between atoms: _193  and  _196
REMARK   83  A    between atoms: _198  and  _200
REMARK   84  A    between atoms: _200  and  _201
REMARK   85  A    between atoms: _200  and  _203
REMARK   86  A    between atoms: _203  and  _204
REMARK   87  A    between atoms: _210  and  _212
REMARK   88  A    between atoms: _212  and  _213
REMARK   89  A    between atoms: _212  and  _215
REMARK   90  A    between atoms: _215  and  _216
REMARK   91  A    between atoms: _221  and  _223
REMARK   92  A    between atoms: _223  and  _224
REMARK   93  A    between atoms: _223  and  _226
REMARK   94  A    between atoms: _226  and  _227
REMARK   95  A    between atoms: _229  and  _231
REMARK   96  A    between atoms: _231  and  _232
REMARK   97  A    between atoms: _231  and  _234
REMARK   98  A    between atoms: _234  and  _235
REMARK   99  A    between atoms: _238  and  _240
REMARK  100  A    between atoms: _240  and  _241
REMARK  101  A    between atoms: _240  and  _243
REMARK  102  A    between atoms: _243  and  _244
REMARK  103  A    between atoms: _247  and  _249
REMARK  104  A    between atoms: _249  and  _250
REMARK  105  A    between atoms: _249  and  _252
REMARK  106  A    between atoms: _252  and  _253
REMARK  107  A    between atoms: _256  and  _258
REMARK  108  A    between atoms: _258  and  _259
REMARK  109  A    between atoms: _258  and  _261
REMARK  110  A    between atoms: _261  and  _262
REMARK  111  A    between atoms: _267  and  _268
REMARK  112  A    between atoms: _270  and  _272
REMARK  113  A    between atoms: _272  and  _273
REMARK  114  A    between atoms: _272  and  _275
REMARK  115  A    between atoms: _275  and  _276
REMARK  116  A    between atoms: _281  and  _283
REMARK  117  A    between atoms: _283  and  _284
REMARK  118  A    between atoms: _286  and  _288
REMARK  119  A    between atoms: _288  and  _289
REMARK  120  A    between atoms: _288  and  _291
REMARK  121  A    between atoms: _291  and  _292
REMARK  122  A    between atoms: _297  and  _299
REMARK  123  A    between atoms: _299  and  _300
REMARK  124  A    between atoms: _299  and  _302
REMARK  125  A    between atoms: _305  and  _307
REMARK  126  A    between atoms: _307  and  _308
REMARK  127  A    between atoms: _307  and  _310
REMARK  128  A    between atoms: _310  and  _311
REMARK  129  A    between atoms: _314  and  _316
REMARK  130  A    between atoms: _316  and  _317
REMARK  131  A    between atoms: _316  and  _319
REMARK  132  A    between atoms: _319  and  _320
REMARK  133  A    between atoms: _323  and  _325
REMARK  134  A    between atoms: _325  and  _326
REMARK  135  A    between atoms: _325  and  _328
REMARK  136  A    between atoms: _328  and  _329
REMARK                            x       y       z     vdW  Elec       q    Type
REMARK                         _______ _______ _______ _____ _____    ______ ____
ROOT
ATOM      1  O   HOH     1     -33.499  13.591 -18.903  0.00  0.00    +0.000 OA
ENDROOT
TORSDOF 0
REMARK  Name = ../refined-set-2016/3dgo/3dgo_pocket.pdb
REMARK  136 active torsions:
REMARK  status: ('A' for Active; 'I' for Inactive)
REMARK    1  A    between atoms: _1  and  _3
REMARK    2  A    between atoms: _3  and  _4
REMARK    3  A    between atoms: _3  and  _6
REMARK    4  A    between atoms: _8  and  _10
REMARK    5  A    between atoms: _10  and  _11
REMARK    6  A    between atoms: _10  and  _13
REMARK    7  A    between atoms: _16  and  _18
REMARK    8  A    between atoms: _18  and  _19
REMARK    9  A    between atoms: _18  and  _21
REMARK   10  A    between atoms: _21  and  _22
REMARK   11  A    between atoms: _22  and  _23
REMARK   12  A    between atoms: _23  and  _24
REMARK   13  A    between atoms: _24  and  _25
REMARK   14  A    between atoms: _30  and  _31
REMARK   15  A    between atoms: _36  and  _38
REMARK   16  A    between atoms: _38  and  _39
REMARK   17  A    between atoms: _38  and  _41
REMARK   18  A    between atoms: _41  and  _42
REMARK   19  A    between atoms: _42  and  _43
REMARK   20  A    between atoms: _43  and  _44
REMARK   21  A    between atoms: _53  and  _55
REMARK   22  A    between atoms: _55  and  _56
REMARK   23  A    between atoms: _55  and  _58
REMARK   24  A    between atoms: _58  and  _59
REMARK   25  A    between atoms: _62  and  _64
REMARK   26  A    between atoms: _64  and  _65
REMARK   27  A    between atoms: _64  and  _67
REMARK   28  A    between atoms: _67  and  _68
REMARK   29  A    between atoms: _78  and  _80
REMARK   30  A    between atoms: _80  and  _81
REMARK   31  A    between atoms: _80  and  _83
REMARK   32  A    between atoms: _83  and  _84
REMARK   33  A    between atoms: _84  and  _85
REMARK   34  A    between atoms: _85  and  _86
REMARK   35  A    between atoms: _86  and  _87
REMARK   36  A    between atoms: _91  and  _93
REMARK   37  A    between atoms: _93  and  _94
REMARK   38  A    between atoms: _93  and  _96
REMARK   39  A    between atoms: _96  and  _97
REMARK   40  A    between atoms: _97  and  _98
REMARK   41  A    between atoms: _98  and  _99
REMARK   42  A    between atoms: _99  and  _100
REMARK   43  A    between atoms: _104  and  _106
REMARK   44  A    between atoms: _106  and  _107
REMARK   45  A    between atoms: _106  and  _109
REMARK   46  A    between atoms: _109  and  _110
REMARK   47  A    between atoms: _110  and  _111
REMARK   48  A    between atoms: _111  and  _112
REMARK   49  A    between atoms: _121  and  _123
REMARK   50  A    between atoms: _123  and  _124
REMARK   51  A    between atoms: _123  and  _126
REMARK   52  A    between atoms: _126  and  _127
REMARK   53  A    between atoms: _130  and  _132
REMARK   54  A    between atoms: _132  and  _133
REMARK   55  A    between atoms: _132  and  _135
REMARK   56  A    between atoms: _135  and  _136
REMARK   57  A    between atoms: _142  and  _144
REMARK   58  A    between atoms: _144  and  _145
REMARK   59  A    between atoms: _144  and  _147
REMARK   60  A    between atoms: _147  and  _148
REMARK   61  A    between atoms: _153  and  _155
REMARK   62  A    between atoms: _155  and  _156
REMARK   63  A    between atoms: _155  and  _158
REMARK   64  A    between atoms: _158  and  _159
REMARK   65  A    between atoms: _159  and  _160
REMARK   66  A    between atoms: _162  and  _164
REMARK   67  A    between atoms: _164  and  _165
REMARK   68  A    between atoms: _164  and  _167
REMARK   69  A    between atoms: _169  and  _171
REMARK   70  A    between atoms: _171  and  _172
REMARK   71  A    between atoms: _171  and  _174
REMARK   72  A    between atoms: _174  and  _175
REMARK   73  A    between atoms: _175  and  _176
REMARK   74  A    between atoms: _176  and  _177
REMARK   75  A    between atoms: _177  and  _178
REMARK   76  A    between atoms: _182  and  _184
REMARK   77  A    between atoms: _184  and  _185
REMARK   78  A    between atoms: _184  and  _187
REMARK   79  A    between atoms: _187  and  _188
REMARK   80  A    between atoms: _191  and  _193
REMARK   81  A    between atoms: _193  and  _194
REMARK   82  A    between atoms: _193  and  _196
REMARK   83  A    between atoms: _198  and  _200
REMARK   84  A    between atoms: _200  and  _201
REMARK   85  A    between atoms: _200  and  _203
REMARK   86  A    between atoms: _203  and  _204
REMARK   87  A    between atoms: _210  and  _212
REMARK   88  A    between atoms: _212  and  _213
REMARK   89  A    between atoms: _212  and  _215
REMARK   90  A    between atoms: _215  and  _216
REMARK   91  A    between atoms: _221  and  _223
REMARK   92  A    between atoms: _223  and  _224
REMARK   93  A    between atoms: _223  and  _226
REMARK   94  A    between atoms: _226  and  _227
REMARK   95  A    between atoms: _229  and  _231
REMARK   96  A    between atoms: _231  and  _232
REMARK   97  A    between atoms: _231  and  _234
REMARK   98  A    between atoms: _234  and  _235
REMARK   99  A    between atoms: _238  and  _240
REMARK  100  A    between atoms: _240  and  _241
REMARK  101  A    between atoms: _240  and  _243
REMARK  102  A    between atoms: _243  and  _244
REMARK  103  A    between atoms: _247  and  _249
REMARK  104  A    between atoms: _249  and  _250
REMARK  105  A    between atoms: _249  and  _252
REMARK  106  A    between atoms: _252  and  _253
REMARK  107  A    between atoms: _256  and  _258
REMARK  108  A    between atoms: _258  and  _259
REMARK  109  A    between atoms: _258  and  _261
REMARK  110  A    between atoms: _261  and  _262
REMARK  111  A    between atoms: _267  and  _268
REMARK  112  A    between atoms: _270  and  _272
REMARK  113  A    between atoms: _272  and  _273
REMARK  114  A    between atoms: _272  and  _275
REMARK  115  A    between atoms: _275  and  _276
REMARK  116  A    between atoms: _281  and  _283
REMARK  117  A    between atoms: _283  and  _284
REMARK  118  A    between atoms: _286  and  _288
REMARK  119  A    between atoms: _288  and  _289
REMARK  120  A    between atoms: _288  and  _291
REMARK  121  A    between atoms: _291  and  _292
REMARK  122  A    between atoms: _297  and  _299
REMARK  123  A    between atoms: _299  and  _300
REMARK  124  A    between atoms: _299  and  _302
REMARK  125  A    between atoms: _305  and  _307
REMARK  126  A    between atoms: _307  and  _308
REMARK  127  A    between atoms: _307  and  _310
REMARK  128  A    between atoms: _310  and  _311
REMARK  129  A    between atoms: _314  and  _316
REMARK  130  A    between atoms: _316  and  _317
REMARK  131  A    between atoms: _316  and  _319
REMARK  132  A    between atoms: _319  and  _320
REMARK  133  A    between atoms: _323  and  _325
REMARK  134  A    between atoms: _325  and  _326
REMARK  135  A    between atoms: _325  and  _328
REMARK  136  A    between atoms: _328  and  _329
REMARK                            x       y       z     vdW  Elec       q    Type
REMARK                         _______ _______ _______ _____ _____    ______ ____
ROOT
ATOM      1  O   HOH     1     -30.606  22.768 -26.971  0.00  0.00    +0.000 OA
ENDROOT
TORSDOF 0
REMARK  Name = ../refined-set-2016/3dgo/3dgo_pocket.pdb
REMARK  136 active torsions:
REMARK  status: ('A' for Active; 'I' for Inactive)
REMARK    1  A    between atoms: _1  and  _3
REMARK    2  A    between atoms: _3  and  _4
REMARK    3  A    between atoms: _3  and  _6
REMARK    4  A    between atoms: _8  and  _10
REMARK    5  A    between atoms: _10  and  _11
REMARK    6  A    between atoms: _10  and  _13
REMARK    7  A    between atoms: _16  and  _18
REMARK    8  A    between atoms: _18  and  _19
REMARK    9  A    between atoms: _18  and  _21
REMARK   10  A    between atoms: _21  and  _22
REMARK   11  A    between atoms: _22  and  _23
REMARK   12  A    between atoms: _23  and  _24
REMARK   13  A    between atoms: _24  and  _25
REMARK   14  A    between atoms: _30  and  _31
REMARK   15  A    between atoms: _36  and  _38
REMARK   16  A    between atoms: _38  and  _39
REMARK   17  A    between atoms: _38  and  _41
REMARK   18  A    between atoms: _41  and  _42
REMARK   19  A    between atoms: _42  and  _43
REMARK   20  A    between atoms: _43  and  _44
REMARK   21  A    between atoms: _53  and  _55
REMARK   22  A    between atoms: _55  and  _56
REMARK   23  A    between atoms: _55  and  _58
REMARK   24  A    between atoms: _58  and  _59
REMARK   25  A    between atoms: _62  and  _64
REMARK   26  A    between atoms: _64  and  _65
REMARK   27  A    between atoms: _64  and  _67
REMARK   28  A    between atoms: _67  and  _68
REMARK   29  A    between atoms: _78  and  _80
REMARK   30  A    between atoms: _80  and  _81
REMARK   31  A    between atoms: _80  and  _83
REMARK   32  A    between atoms: _83  and  _84
REMARK   33  A    between atoms: _84  and  _85
REMARK   34  A    between atoms: _85  and  _86
REMARK   35  A    between atoms: _86  and  _87
REMARK   36  A    between atoms: _91  and  _93
REMARK   37  A    between atoms: _93  and  _94
REMARK   38  A    between atoms: _93  and  _96
REMARK   39  A    between atoms: _96  and  _97
REMARK   40  A    between atoms: _97  and  _98
REMARK   41  A    between atoms: _98  and  _99
REMARK   42  A    between atoms: _99  and  _100
REMARK   43  A    between atoms: _104  and  _106
REMARK   44  A    between atoms: _106  and  _107
REMARK   45  A    between atoms: _106  and  _109
REMARK   46  A    between atoms: _109  and  _110
REMARK   47  A    between atoms: _110  and  _111
REMARK   48  A    between atoms: _111  and  _112
REMARK   49  A    between atoms: _121  and  _123
REMARK   50  A    between atoms: _123  and  _124
REMARK   51  A    between atoms: _123  and  _126
REMARK   52  A    between atoms: _126  and  _127
REMARK   53  A    between atoms: _130  and  _132
REMARK   54  A    between atoms: _132  and  _133
REMARK   55  A    between atoms: _132  and  _135
REMARK   56  A    between atoms: _135  and  _136
REMARK   57  A    between atoms: _142  and  _144
REMARK   58  A    between atoms: _144  and  _145
REMARK   59  A    between atoms: _144  and  _147
REMARK   60  A    between atoms: _147  and  _148
REMARK   61  A    between atoms: _153  and  _155
REMARK   62  A    between atoms: _155  and  _156
REMARK   63  A    between atoms: _155  and  _158
REMARK   64  A    between atoms: _158  and  _159
REMARK   65  A    between atoms: _159  and  _160
REMARK   66  A    between atoms: _162  and  _164
REMARK   67  A    between atoms: _164  and  _165
REMARK   68  A    between atoms: _164  and  _167
REMARK   69  A    between atoms: _169  and  _171
REMARK   70  A    between atoms: _171  and  _172
REMARK   71  A    between atoms: _171  and  _174
REMARK   72  A    between atoms: _174  and  _175
REMARK   73  A    between atoms: _175  and  _176
REMARK   74  A    between atoms: _176  and  _177
REMARK   75  A    between atoms: _177  and  _178
REMARK   76  A    between atoms: _182  and  _184
REMARK   77  A    between atoms: _184  and  _185
REMARK   78  A    between atoms: _184  and  _187
REMARK   79  A    between atoms: _187  and  _188
REMARK   80  A    between atoms: _191  and  _193
REMARK   81  A    between atoms: _193  and  _194
REMARK   82  A    between atoms: _193  and  _196
REMARK   83  A    between atoms: _198  and  _200
REMARK   84  A    between atoms: _200  and  _201
REMARK   85  A    between atoms: _200  and  _203
REMARK   86  A    between atoms: _203  and  _204
REMARK   87  A    between atoms: _210  and  _212
REMARK   88  A    between atoms: _212  and  _213
REMARK   89  A    between atoms: _212  and  _215
REMARK   90  A    between atoms: _215  and  _216
REMARK   91  A    between atoms: _221  and  _223
REMARK   92  A    between atoms: _223  and  _224
REMARK   93  A    between atoms: _223  and  _226
REMARK   94  A    between atoms: _226  and  _227
REMARK   95  A    between atoms: _229  and  _231
REMARK   96  A    between atoms: _231  and  _232
REMARK   97  A    between atoms: _231  and  _234
REMARK   98  A    between atoms: _234  and  _235
REMARK   99  A    between atoms: _238  and  _240
REMARK  100  A    between atoms: _240  and  _241
REMARK  101  A    between atoms: _240  and  _243
REMARK  102  A    between atoms: _243  and  _244
REMARK  103  A    between atoms: _247  and  _249
REMARK  104  A    between atoms: _249  and  _250
REMARK  105  A    between atoms: _249  and  _252
REMARK  106  A    between atoms: _252  and  _253
REMARK  107  A    between atoms: _256  and  _258
REMARK  108  A    between atoms: _258  and  _259
REMARK  109  A    between atoms: _258  and  _261
REMARK  110  A    between atoms: _261  and  _262
REMARK  111  A    between atoms: _267  and  _268
REMARK  112  A    between atoms: _270  and  _272
REMARK  113  A    between atoms: _272  and  _273
REMARK  114  A    between atoms: _272  and  _275
REMARK  115  A    between atoms: _275  and  _276
REMARK  116  A    between atoms: _281  and  _283
REMARK  117  A    between atoms: _283  and  _284
REMARK  118  A    between atoms: _286  and  _288
REMARK  119  A    between atoms: _288  and  _289
REMARK  120  A    between atoms: _288  and  _291
REMARK  121  A    between atoms: _291  and  _292
REMARK  122  A    between atoms: _297  and  _299
REMARK  123  A    between atoms: _299  and  _300
REMARK  124  A    between atoms: _299  and  _302
REMARK  125  A    between atoms: _305  and  _307
REMARK  126  A    between atoms: _307  and  _308
REMARK  127  A    between atoms: _307  and  _310
REMARK  128  A    between atoms: _310  and  _311
REMARK  129  A    between atoms: _314  and  _316
REMARK  130  A    between atoms: _316  and  _317
REMARK  131  A    between atoms: _316  and  _319
REMARK  132  A    between atoms: _319  and  _320
REMARK  133  A    between atoms: _323  and  _325
REMARK  134  A    between atoms: _325  and  _326
REMARK  135  A    between atoms: _325  and  _328
REMARK  136  A    between atoms: _328  and  _329
REMARK                            x       y       z     vdW  Elec       q    Type
REMARK                         _______ _______ _______ _____ _____    ______ ____
ROOT
ATOM      1  O   HOH     1     -28.503  13.085 -24.212  0.00  0.00    +0.000 OA
ENDROOT
TORSDOF 0
REMARK  Name = ../refined-set-2016/3dgo/3dgo_pocket.pdb
REMARK  136 active torsions:
REMARK  status: ('A' for Active; 'I' for Inactive)
REMARK    1  A    between atoms: _1  and  _3
REMARK    2  A    between atoms: _3  and  _4
REMARK    3  A    between atoms: _3  and  _6
REMARK    4  A    between atoms: _8  and  _10
REMARK    5  A    between atoms: _10  and  _11
REMARK    6  A    between atoms: _10  and  _13
REMARK    7  A    between atoms: _16  and  _18
REMARK    8  A    between atoms: _18  and  _19
REMARK    9  A    between atoms: _18  and  _21
REMARK   10  A    between atoms: _21  and  _22
REMARK   11  A    between atoms: _22  and  _23
REMARK   12  A    between atoms: _23  and  _24
REMARK   13  A    between atoms: _24  and  _25
REMARK   14  A    between atoms: _30  and  _31
REMARK   15  A    between atoms: _36  and  _38
REMARK   16  A    between atoms: _38  and  _39
REMARK   17  A    between atoms: _38  and  _41
REMARK   18  A    between atoms: _41  and  _42
REMARK   19  A    between atoms: _42  and  _43
REMARK   20  A    between atoms: _43  and  _44
REMARK   21  A    between atoms: _53  and  _55
REMARK   22  A    between atoms: _55  and  _56
REMARK   23  A    between atoms: _55  and  _58
REMARK   24  A    between atoms: _58  and  _59
REMARK   25  A    between atoms: _62  and  _64
REMARK   26  A    between atoms: _64  and  _65
REMARK   27  A    between atoms: _64  and  _67
REMARK   28  A    between atoms: _67  and  _68
REMARK   29  A    between atoms: _78  and  _80
REMARK   30  A    between atoms: _80  and  _81
REMARK   31  A    between atoms: _80  and  _83
REMARK   32  A    between atoms: _83  and  _84
REMARK   33  A    between atoms: _84  and  _85
REMARK   34  A    between atoms: _85  and  _86
REMARK   35  A    between atoms: _86  and  _87
REMARK   36  A    between atoms: _91  and  _93
REMARK   37  A    between atoms: _93  and  _94
REMARK   38  A    between atoms: _93  and  _96
REMARK   39  A    between atoms: _96  and  _97
REMARK   40  A    between atoms: _97  and  _98
REMARK   41  A    between atoms: _98  and  _99
REMARK   42  A    between atoms: _99  and  _100
REMARK   43  A    between atoms: _104  and  _106
REMARK   44  A    between atoms: _106  and  _107
REMARK   45  A    between atoms: _106  and  _109
REMARK   46  A    between atoms: _109  and  _110
REMARK   47  A    between atoms: _110  and  _111
REMARK   48  A    between atoms: _111  and  _112
REMARK   49  A    between atoms: _121  and  _123
REMARK   50  A    between atoms: _123  and  _124
REMARK   51  A    between atoms: _123  and  _126
REMARK   52  A    between atoms: _126  and  _127
REMARK   53  A    between atoms: _130  and  _132
REMARK   54  A    between atoms: _132  and  _133
REMARK   55  A    between atoms: _132  and  _135
REMARK   56  A    between atoms: _135  and  _136
REMARK   57  A    between atoms: _142  and  _144
REMARK   58  A    between atoms: _144  and  _145
REMARK   59  A    between atoms: _144  and  _147
REMARK   60  A    between atoms: _147  and  _148
REMARK   61  A    between atoms: _153  and  _155
REMARK   62  A    between atoms: _155  and  _156
REMARK   63  A    between atoms: _155  and  _158
REMARK   64  A    between atoms: _158  and  _159
REMARK   65  A    between atoms: _159  and  _160
REMARK   66  A    between atoms: _162  and  _164
REMARK   67  A    between atoms: _164  and  _165
REMARK   68  A    between atoms: _164  and  _167
REMARK   69  A    between atoms: _169  and  _171
REMARK   70  A    between atoms: _171  and  _172
REMARK   71  A    between atoms: _171  and  _174
REMARK   72  A    between atoms: _174  and  _175
REMARK   73  A    between atoms: _175  and  _176
REMARK   74  A    between atoms: _176  and  _177
REMARK   75  A    between atoms: _177  and  _178
REMARK   76  A    between atoms: _182  and  _184
REMARK   77  A    between atoms: _184  and  _185
REMARK   78  A    between atoms: _184  and  _187
REMARK   79  A    between atoms: _187  and  _188
REMARK   80  A    between atoms: _191  and  _193
REMARK   81  A    between atoms: _193  and  _194
REMARK   82  A    between atoms: _193  and  _196
REMARK   83  A    between atoms: _198  and  _200
REMARK   84  A    between atoms: _200  and  _201
REMARK   85  A    between atoms: _200  and  _203
REMARK   86  A    between atoms: _203  and  _204
REMARK   87  A    between atoms: _210  and  _212
REMARK   88  A    between atoms: _212  and  _213
REMARK   89  A    between atoms: _212  and  _215
REMARK   90  A    between atoms: _215  and  _216
REMARK   91  A    between atoms: _221  and  _223
REMARK   92  A    between atoms: _223  and  _224
REMARK   93  A    between atoms: _223  and  _226
REMARK   94  A    between atoms: _226  and  _227
REMARK   95  A    between atoms: _229  and  _231
REMARK   96  A    between atoms: _231  and  _232
REMARK   97  A    between atoms: _231  and  _234
REMARK   98  A    between atoms: _234  and  _235
REMARK   99  A    between atoms: _238  and  _240
REMARK  100  A    between atoms: _240  and  _241
REMARK  101  A    between atoms: _240  and  _243
REMARK  102  A    between atoms: _243  and  _244
REMARK  103  A    between atoms: _247  and  _249
REMARK  104  A    between atoms: _249  and  _250
REMARK  105  A    between atoms: _249  and  _252
REMARK  106  A    between atoms: _252  and  _253
REMARK  107  A    between atoms: _256  and  _258
REMARK  108  A    between atoms: _258  and  _259
REMARK  109  A    between atoms: _258  and  _261
REMARK  110  A    between atoms: _261  and  _262
REMARK  111  A    between atoms: _267  and  _268
REMARK  112  A    between atoms: _270  and  _272
REMARK  113  A    between atoms: _272  and  _273
REMARK  114  A    between atoms: _272  and  _275
REMARK  115  A    between atoms: _275  and  _276
REMARK  116  A    between atoms: _281  and  _283
REMARK  117  A    between atoms: _283  and  _284
REMARK  118  A    between atoms: _286  and  _288
REMARK  119  A    between atoms: _288  and  _289
REMARK  120  A    between atoms: _288  and  _291
REMARK  121  A    between atoms: _291  and  _292
REMARK  122  A    between atoms: _297  and  _299
REMARK  123  A    between atoms: _299  and  _300
REMARK  124  A    between atoms: _299  and  _302
REMARK  125  A    between atoms: _305  and  _307
REMARK  126  A    between atoms: _307  and  _308
REMARK  127  A    between atoms: _307  and  _310
REMARK  128  A    between atoms: _310  and  _311
REMARK  129  A    between atoms: _314  and  _316
REMARK  130  A    between atoms: _316  and  _317
REMARK  131  A    between atoms: _316  and  _319
REMARK  132  A    between atoms: _319  and  _320
REMARK  133  A    between atoms: _323  and  _325
REMARK  134  A    between atoms: _325  and  _326
REMARK  135  A    between atoms: _325  and  _328
REMARK  136  A    between atoms: _328  and  _329
REMARK                            x       y       z     vdW  Elec       q    Type
REMARK                         _______ _______ _______ _____ _____    ______ ____
ROOT
ATOM      1  O   HOH     1     -25.112  27.090 -23.830  0.00  0.00    +0.000 OA
ENDROOT
TORSDOF 0
