REMARK  Name = ../refined-set-2016/4hwo/4hwo_pocket.pdb
REMARK  258 active torsions:
REMARK  status: ('A' for Active; 'I' for Inactive)
REMARK    1  A    between atoms: _1  and  _3
REMARK    2  A    between atoms: _3  and  _4
REMARK    3  A    between atoms: _6  and  _8
REMARK    4  A    between atoms: _8  and  _9
REMARK    5  A    between atoms: _8  and  _11
REMARK    6  A    between atoms: _14  and  _16
REMARK    7  A    between atoms: _16  and  _17
REMARK    8  A    between atoms: _16  and  _19
REMARK    9  A    between atoms: _19  and  _20
REMARK   10  A    between atoms: _25  and  _27
REMARK   11  A    between atoms: _27  and  _28
REMARK   12  A    between atoms: _27  and  _30
REMARK   13  A    between atoms: _30  and  _31
REMARK   14  A    between atoms: _36  and  _37
REMARK   15  A    between atoms: _40  and  _41
REMARK   16  A    between atoms: _46  and  _48
REMARK   17  A    between atoms: _48  and  _49
REMARK   18  A    between atoms: _48  and  _51
REMARK   19  A    between atoms: _51  and  _52
REMARK   20  A    between atoms: _52  and  _53
REMARK   21  A    between atoms: _55  and  _57
REMARK   22  A    between atoms: _57  and  _58
REMARK   23  A    between atoms: _57  and  _60
REMARK   24  A    between atoms: _60  and  _61
REMARK   25  A    between atoms: _66  and  _68
REMARK   26  A    between atoms: _68  and  _69
REMARK   27  A    between atoms: _68  and  _71
REMARK   28  A    between atoms: _71  and  _72
REMARK   29  A    between atoms: _72  and  ZN_632
REMARK   30  A    between atoms: _74  and  _75
REMARK   31  A    between atoms: _80  and  _82
REMARK   32  A    between atoms: _82  and  _83
REMARK   33  A    between atoms: _82  and  _85
REMARK   34  A    between atoms: _85  and  _86
REMARK   35  A    between atoms: _91  and  _93
REMARK   36  A    between atoms: _93  and  _94
REMARK   37  A    between atoms: _93  and  _96
REMARK   38  A    between atoms: _98  and  _100
REMARK   39  A    between atoms: _100  and  _101
REMARK   40  A    between atoms: _100  and  _103
REMARK   41  A    between atoms: _103  and  _104
REMARK   42  A    between atoms: _109  and  _111
REMARK   43  A    between atoms: _111  and  _112
REMARK   44  A    between atoms: _111  and  _114
REMARK   45  A    between atoms: _114  and  _115
REMARK   46  A    between atoms: _115  and  _116
REMARK   47  A    between atoms: _116  and  _117
REMARK   48  A    between atoms: _126  and  _128
REMARK   49  A    between atoms: _128  and  _129
REMARK   50  A    between atoms: _128  and  _131
REMARK   51  A    between atoms: _131  and  _132
REMARK   52  A    between atoms: _137  and  _139
REMARK   53  A    between atoms: _139  and  _140
REMARK   54  A    between atoms: _139  and  _142
REMARK   55  A    between atoms: _142  and  _143
REMARK   56  A    between atoms: _143  and  _144
REMARK   57  A    between atoms: _147  and  _149
REMARK   58  A    between atoms: _149  and  _150
REMARK   59  A    between atoms: _149  and  _152
REMARK   60  A    between atoms: _152  and  _153
REMARK   61  A    between atoms: _155  and  _157
REMARK   62  A    between atoms: _157  and  _158
REMARK   63  A    between atoms: _157  and  _160
REMARK   64  A    between atoms: _160  and  _161
REMARK   65  A    between atoms: _164  and  _166
REMARK   66  A    between atoms: _166  and  _167
REMARK   67  A    between atoms: _166  and  _169
REMARK   68  A    between atoms: _169  and  _170
REMARK   69  A    between atoms: _175  and  _177
REMARK   70  A    between atoms: _177  and  _178
REMARK   71  A    between atoms: _180  and  _182
REMARK   72  A    between atoms: _182  and  _183
REMARK   73  A    between atoms: _182  and  _185
REMARK   74  A    between atoms: _185  and  _186
REMARK   75  A    between atoms: _189  and  _191
REMARK   76  A    between atoms: _191  and  _192
REMARK   77  A    between atoms: _191  and  _194
REMARK   78  A    between atoms: _194  and  _195
REMARK   79  A    between atoms: _195  and  _196
REMARK   80  A    between atoms: _198  and  _200
REMARK   81  A    between atoms: _200  and  _201
REMARK   82  A    between atoms: _200  and  _203
REMARK   83  A    between atoms: _203  and  _204
REMARK   84  A    between atoms: _204  and  _205
REMARK   85  A    between atoms: _205  and  _206
REMARK   86  A    between atoms: _215  and  _217
REMARK   87  A    between atoms: _217  and  _218
REMARK   88  A    between atoms: _217  and  _220
REMARK   89  A    between atoms: _223  and  _225
REMARK   90  A    between atoms: _225  and  _226
REMARK   91  A    between atoms: _225  and  _228
REMARK   92  A    between atoms: _228  and  _229
REMARK   93  A    between atoms: _229  and  _230
REMARK   94  A    between atoms: _230  and  _231
REMARK   95  A    between atoms: _240  and  _242
REMARK   96  A    between atoms: _242  and  _243
REMARK   97  A    between atoms: _245  and  _247
REMARK   98  A    between atoms: _247  and  _248
REMARK   99  A    between atoms: _247  and  _250
REMARK  100  A    between atoms: _250  and  _251
REMARK  101  A    between atoms: _257  and  _259
REMARK  102  A    between atoms: _259  and  _260
REMARK  103  A    between atoms: _259  and  _262
REMARK  104  A    between atoms: _262  and  _263
REMARK  105  A    between atoms: _266  and  _268
REMARK  106  A    between atoms: _268  and  _269
REMARK  107  A    between atoms: _268  and  _271
REMARK  108  A    between atoms: _271  and  _272
REMARK  109  A    between atoms: _272  and  _273
REMARK  110  A    between atoms: _278  and  _280
REMARK  111  A    between atoms: _280  and  _281
REMARK  112  A    between atoms: _280  and  _283
REMARK  113  A    between atoms: _283  and  _284
REMARK  114  A    between atoms: _287  and  _289
REMARK  115  A    between atoms: _289  and  _290
REMARK  116  A    between atoms: _289  and  _292
REMARK  117  A    between atoms: _292  and  _293
REMARK  118  A    between atoms: _296  and  _298
REMARK  119  A    between atoms: _298  and  _299
REMARK  120  A    between atoms: _302  and  _304
REMARK  121  A    between atoms: _304  and  _305
REMARK  122  A    between atoms: _304  and  _307
REMARK  123  A    between atoms: _307  and  _308
REMARK  124  A    between atoms: _312  and  ZN_632
REMARK  125  A    between atoms: _313  and  _315
REMARK  126  A    between atoms: _315  and  _316
REMARK  127  A    between atoms: _315  and  _318
REMARK  128  A    between atoms: _318  and  _319
REMARK  129  A    between atoms: _322  and  _324
REMARK  130  A    between atoms: _324  and  _325
REMARK  131  A    between atoms: _324  and  _327
REMARK  132  A    between atoms: _327  and  _328
REMARK  133  A    between atoms: _330  and  _332
REMARK  134  A    between atoms: _332  and  _333
REMARK  135  A    between atoms: _332  and  _335
REMARK  136  A    between atoms: _335  and  _336
REMARK  137  A    between atoms: _336  and  _337
REMARK  138  A    between atoms: _340  and  _342
REMARK  139  A    between atoms: _342  and  _343
REMARK  140  A    between atoms: _345  and  _347
REMARK  141  A    between atoms: _347  and  _348
REMARK  142  A    between atoms: _351  and  _353
REMARK  143  A    between atoms: _353  and  _354
REMARK  144  A    between atoms: _353  and  _356
REMARK  145  A    between atoms: _356  and  _357
REMARK  146  A    between atoms: _363  and  _365
REMARK  147  A    between atoms: _365  and  _366
REMARK  148  A    between atoms: _365  and  _368
REMARK  149  A    between atoms: _368  and  _369
REMARK  150  A    between atoms: _374  and  _375
REMARK  151  A    between atoms: _377  and  _379
REMARK  152  A    between atoms: _379  and  _380
REMARK  153  A    between atoms: _379  and  _382
REMARK  154  A    between atoms: _382  and  _383
REMARK  155  A    between atoms: _383  and  _384
REMARK  156  A    between atoms: _384  and  _385
REMARK  157  A    between atoms: _385  and  _386
REMARK  158  A    between atoms: _390  and  _392
REMARK  159  A    between atoms: _392  and  _393
REMARK  160  A    between atoms: _392  and  _395
REMARK  161  A    between atoms: _395  and  _396
REMARK  162  A    between atoms: _399  and  _401
REMARK  163  A    between atoms: _401  and  _402
REMARK  164  A    between atoms: _401  and  _404
REMARK  165  A    between atoms: _404  and  _405
REMARK  166  A    between atoms: _405  and  _406
REMARK  167  A    between atoms: _409  and  _411
REMARK  168  A    between atoms: _411  and  _412
REMARK  169  A    between atoms: _411  and  _414
REMARK  170  A    between atoms: _414  and  _415
REMARK  171  A    between atoms: _425  and  _427
REMARK  172  A    between atoms: _427  and  _428
REMARK  173  A    between atoms: _427  and  _430
REMARK  174  A    between atoms: _430  and  _431
REMARK  175  A    between atoms: _431  and  _432
REMARK  176  A    between atoms: _437  and  _439
REMARK  177  A    between atoms: _439  and  _440
REMARK  178  A    between atoms: _439  and  _442
REMARK  179  A    between atoms: _444  and  _446
REMARK  180  A    between atoms: _446  and  _447
REMARK  181  A    between atoms: _449  and  _451
REMARK  182  A    between atoms: _451  and  _452
REMARK  183  A    between atoms: _451  and  _454
REMARK  184  A    between atoms: _454  and  _455
REMARK  185  A    between atoms: _458  and  _460
REMARK  186  A    between atoms: _460  and  _461
REMARK  187  A    between atoms: _460  and  _463
REMARK  188  A    between atoms: _466  and  _468
REMARK  189  A    between atoms: _468  and  _469
REMARK  190  A    between atoms: _468  and  _471
REMARK  191  A    between atoms: _471  and  _472
REMARK  192  A    between atoms: _472  and  _473
REMARK  193  A    between atoms: _478  and  _480
REMARK  194  A    between atoms: _480  and  _481
REMARK  195  A    between atoms: _480  and  _483
REMARK  196  A    between atoms: _483  and  _484
REMARK  197  A    between atoms: _487  and  _489
REMARK  198  A    between atoms: _489  and  _490
REMARK  199  A    between atoms: _489  and  _492
REMARK  200  A    between atoms: _492  and  _493
REMARK  201  A    between atoms: _496  and  _498
REMARK  202  A    between atoms: _498  and  _499
REMARK  203  A    between atoms: _498  and  _501
REMARK  204  A    between atoms: _501  and  _502
REMARK  205  A    between atoms: _502  and  _503
REMARK  206  A    between atoms: _505  and  _507
REMARK  207  A    between atoms: _507  and  _508
REMARK  208  A    between atoms: _507  and  _510
REMARK  209  A    between atoms: _510  and  _511
REMARK  210  A    between atoms: _514  and  _516
REMARK  211  A    between atoms: _516  and  _517
REMARK  212  A    between atoms: _516  and  _519
REMARK  213  A    between atoms: _519  and  _520
REMARK  214  A    between atoms: _521  and  ZN_632
REMARK  215  A    between atoms: _525  and  _527
REMARK  216  A    between atoms: _527  and  _528
REMARK  217  A    between atoms: _527  and  _530
REMARK  218  A    between atoms: _530  and  _531
REMARK  219  A    between atoms: _531  and  _532
REMARK  220  A    between atoms: _532  and  _533
REMARK  221  A    between atoms: _542  and  _544
REMARK  222  A    between atoms: _544  and  _545
REMARK  223  A    between atoms: _548  and  _550
REMARK  224  A    between atoms: _550  and  _551
REMARK  225  A    between atoms: _550  and  _553
REMARK  226  A    between atoms: _553  and  _554
REMARK  227  A    between atoms: _557  and  _559
REMARK  228  A    between atoms: _559  and  _560
REMARK  229  A    between atoms: _559  and  _562
REMARK  230  A    between atoms: _562  and  _563
REMARK  231  A    between atoms: _566  and  _568
REMARK  232  A    between atoms: _568  and  _569
REMARK  233  A    between atoms: _571  and  _573
REMARK  234  A    between atoms: _573  and  _574
REMARK  235  A    between atoms: _573  and  _576
REMARK  236  A    between atoms: _576  and  _577
REMARK  237  A    between atoms: _579  and  _581
REMARK  238  A    between atoms: _581  and  _582
REMARK  239  A    between atoms: _581  and  _584
REMARK  240  A    between atoms: _584  and  _585
REMARK  241  A    between atoms: _585  and  _586
REMARK  242  A    between atoms: _588  and  _590
REMARK  243  A    between atoms: _590  and  _591
REMARK  244  A    between atoms: _590  and  _593
REMARK  245  A    between atoms: _593  and  _594
REMARK  246  A    between atoms: _594  and  _595
REMARK  247  A    between atoms: _598  and  _600
REMARK  248  A    between atoms: _600  and  _601
REMARK  249  A    between atoms: _600  and  _603
REMARK  250  A    between atoms: _603  and  _604
REMARK  251  A    between atoms: _604  and  _605
REMARK  252  A    between atoms: _605  and  _606
REMARK  253  A    between atoms: _615  and  _617
REMARK  254  A    between atoms: _617  and  _618
REMARK  255  A    between atoms: _617  and  _620
REMARK  256  A    between atoms: _620  and  _621
REMARK  257  A    between atoms: _627  and  _629
REMARK  258  A    between atoms: _629  and  _630
REMARK                            x       y       z     vdW  Elec       q    Type
REMARK                         _______ _______ _______ _____ _____    ______ ____
ROOT
ATOM      1  CA  GLY A   1     -29.626 -36.121  11.777  0.00  0.00    +0.156 C 
ENDROOT
BRANCH   1   2
ATOM      2  N   GLY A   1     -30.750 -36.267  10.801  0.00  0.00    -0.238 NA
ATOM      3  H   GLY A   1     -31.540 -36.900  11.040  0.00  0.00    +0.142 HD
ENDBRANCH   1   2
BRANCH   1   4
ATOM      4  C   GLY A   1     -29.377 -34.718  12.350  0.00  0.00    +0.226 C 
ATOM      5  O   GLY A   1     -28.286 -34.421  12.889  0.00  0.00    -0.287 OA
ENDBRANCH   1   4
TORSDOF 2
REMARK  Name = ../refined-set-2016/4hwo/4hwo_pocket.pdb
REMARK  258 active torsions:
REMARK  status: ('A' for Active; 'I' for Inactive)
REMARK    1  A    between atoms: _1  and  _3
REMARK    2  A    between atoms: _3  and  _4
REMARK    3  A    between atoms: _6  and  _8
REMARK    4  A    between atoms: _8  and  _9
REMARK    5  A    between atoms: _8  and  _11
REMARK    6  A    between atoms: _14  and  _16
REMARK    7  A    between atoms: _16  and  _17
REMARK    8  A    between atoms: _16  and  _19
REMARK    9  A    between atoms: _19  and  _20
REMARK   10  A    between atoms: _25  and  _27
REMARK   11  A    between atoms: _27  and  _28
REMARK   12  A    between atoms: _27  and  _30
REMARK   13  A    between atoms: _30  and  _31
REMARK   14  A    between atoms: _36  and  _37
REMARK   15  A    between atoms: _40  and  _41
REMARK   16  A    between atoms: _46  and  _48
REMARK   17  A    between atoms: _48  and  _49
REMARK   18  A    between atoms: _48  and  _51
REMARK   19  A    between atoms: _51  and  _52
REMARK   20  A    between atoms: _52  and  _53
REMARK   21  A    between atoms: _55  and  _57
REMARK   22  A    between atoms: _57  and  _58
REMARK   23  A    between atoms: _57  and  _60
REMARK   24  A    between atoms: _60  and  _61
REMARK   25  A    between atoms: _66  and  _68
REMARK   26  A    between atoms: _68  and  _69
REMARK   27  A    between atoms: _68  and  _71
REMARK   28  A    between atoms: _71  and  _72
REMARK   29  A    between atoms: _72  and  ZN_632
REMARK   30  A    between atoms: _74  and  _75
REMARK   31  A    between atoms: _80  and  _82
REMARK   32  A    between atoms: _82  and  _83
REMARK   33  A    between atoms: _82  and  _85
REMARK   34  A    between atoms: _85  and  _86
REMARK   35  A    between atoms: _91  and  _93
REMARK   36  A    between atoms: _93  and  _94
REMARK   37  A    between atoms: _93  and  _96
REMARK   38  A    between atoms: _98  and  _100
REMARK   39  A    between atoms: _100  and  _101
REMARK   40  A    between atoms: _100  and  _103
REMARK   41  A    between atoms: _103  and  _104
REMARK   42  A    between atoms: _109  and  _111
REMARK   43  A    between atoms: _111  and  _112
REMARK   44  A    between atoms: _111  and  _114
REMARK   45  A    between atoms: _114  and  _115
REMARK   46  A    between atoms: _115  and  _116
REMARK   47  A    between atoms: _116  and  _117
REMARK   48  A    between atoms: _126  and  _128
REMARK   49  A    between atoms: _128  and  _129
REMARK   50  A    between atoms: _128  and  _131
REMARK   51  A    between atoms: _131  and  _132
REMARK   52  A    between atoms: _137  and  _139
REMARK   53  A    between atoms: _139  and  _140
REMARK   54  A    between atoms: _139  and  _142
REMARK   55  A    between atoms: _142  and  _143
REMARK   56  A    between atoms: _143  and  _144
REMARK   57  A    between atoms: _147  and  _149
REMARK   58  A    between atoms: _149  and  _150
REMARK   59  A    between atoms: _149  and  _152
REMARK   60  A    between atoms: _152  and  _153
REMARK   61  A    between atoms: _155  and  _157
REMARK   62  A    between atoms: _157  and  _158
REMARK   63  A    between atoms: _157  and  _160
REMARK   64  A    between atoms: _160  and  _161
REMARK   65  A    between atoms: _164  and  _166
REMARK   66  A    between atoms: _166  and  _167
REMARK   67  A    between atoms: _166  and  _169
REMARK   68  A    between atoms: _169  and  _170
REMARK   69  A    between atoms: _175  and  _177
REMARK   70  A    between atoms: _177  and  _178
REMARK   71  A    between atoms: _180  and  _182
REMARK   72  A    between atoms: _182  and  _183
REMARK   73  A    between atoms: _182  and  _185
REMARK   74  A    between atoms: _185  and  _186
REMARK   75  A    between atoms: _189  and  _191
REMARK   76  A    between atoms: _191  and  _192
REMARK   77  A    between atoms: _191  and  _194
REMARK   78  A    between atoms: _194  and  _195
REMARK   79  A    between atoms: _195  and  _196
REMARK   80  A    between atoms: _198  and  _200
REMARK   81  A    between atoms: _200  and  _201
REMARK   82  A    between atoms: _200  and  _203
REMARK   83  A    between atoms: _203  and  _204
REMARK   84  A    between atoms: _204  and  _205
REMARK   85  A    between atoms: _205  and  _206
REMARK   86  A    between atoms: _215  and  _217
REMARK   87  A    between atoms: _217  and  _218
REMARK   88  A    between atoms: _217  and  _220
REMARK   89  A    between atoms: _223  and  _225
REMARK   90  A    between atoms: _225  and  _226
REMARK   91  A    between atoms: _225  and  _228
REMARK   92  A    between atoms: _228  and  _229
REMARK   93  A    between atoms: _229  and  _230
REMARK   94  A    between atoms: _230  and  _231
REMARK   95  A    between atoms: _240  and  _242
REMARK   96  A    between atoms: _242  and  _243
REMARK   97  A    between atoms: _245  and  _247
REMARK   98  A    between atoms: _247  and  _248
REMARK   99  A    between atoms: _247  and  _250
REMARK  100  A    between atoms: _250  and  _251
REMARK  101  A    between atoms: _257  and  _259
REMARK  102  A    between atoms: _259  and  _260
REMARK  103  A    between atoms: _259  and  _262
REMARK  104  A    between atoms: _262  and  _263
REMARK  105  A    between atoms: _266  and  _268
REMARK  106  A    between atoms: _268  and  _269
REMARK  107  A    between atoms: _268  and  _271
REMARK  108  A    between atoms: _271  and  _272
REMARK  109  A    between atoms: _272  and  _273
REMARK  110  A    between atoms: _278  and  _280
REMARK  111  A    between atoms: _280  and  _281
REMARK  112  A    between atoms: _280  and  _283
REMARK  113  A    between atoms: _283  and  _284
REMARK  114  A    between atoms: _287  and  _289
REMARK  115  A    between atoms: _289  and  _290
REMARK  116  A    between atoms: _289  and  _292
REMARK  117  A    between atoms: _292  and  _293
REMARK  118  A    between atoms: _296  and  _298
REMARK  119  A    between atoms: _298  and  _299
REMARK  120  A    between atoms: _302  and  _304
REMARK  121  A    between atoms: _304  and  _305
REMARK  122  A    between atoms: _304  and  _307
REMARK  123  A    between atoms: _307  and  _308
REMARK  124  A    between atoms: _312  and  ZN_632
REMARK  125  A    between atoms: _313  and  _315
REMARK  126  A    between atoms: _315  and  _316
REMARK  127  A    between atoms: _315  and  _318
REMARK  128  A    between atoms: _318  and  _319
REMARK  129  A    between atoms: _322  and  _324
REMARK  130  A    between atoms: _324  and  _325
REMARK  131  A    between atoms: _324  and  _327
REMARK  132  A    between atoms: _327  and  _328
REMARK  133  A    between atoms: _330  and  _332
REMARK  134  A    between atoms: _332  and  _333
REMARK  135  A    between atoms: _332  and  _335
REMARK  136  A    between atoms: _335  and  _336
REMARK  137  A    between atoms: _336  and  _337
REMARK  138  A    between atoms: _340  and  _342
REMARK  139  A    between atoms: _342  and  _343
REMARK  140  A    between atoms: _345  and  _347
REMARK  141  A    between atoms: _347  and  _348
REMARK  142  A    between atoms: _351  and  _353
REMARK  143  A    between atoms: _353  and  _354
REMARK  144  A    between atoms: _353  and  _356
REMARK  145  A    between atoms: _356  and  _357
REMARK  146  A    between atoms: _363  and  _365
REMARK  147  A    between atoms: _365  and  _366
REMARK  148  A    between atoms: _365  and  _368
REMARK  149  A    between atoms: _368  and  _369
REMARK  150  A    between atoms: _374  and  _375
REMARK  151  A    between atoms: _377  and  _379
REMARK  152  A    between atoms: _379  and  _380
REMARK  153  A    between atoms: _379  and  _382
REMARK  154  A    between atoms: _382  and  _383
REMARK  155  A    between atoms: _383  and  _384
REMARK  156  A    between atoms: _384  and  _385
REMARK  157  A    between atoms: _385  and  _386
REMARK  158  A    between atoms: _390  and  _392
REMARK  159  A    between atoms: _392  and  _393
REMARK  160  A    between atoms: _392  and  _395
REMARK  161  A    between atoms: _395  and  _396
REMARK  162  A    between atoms: _399  and  _401
REMARK  163  A    between atoms: _401  and  _402
REMARK  164  A    between atoms: _401  and  _404
REMARK  165  A    between atoms: _404  and  _405
REMARK  166  A    between atoms: _405  and  _406
REMARK  167  A    between atoms: _409  and  _411
REMARK  168  A    between atoms: _411  and  _412
REMARK  169  A    between atoms: _411  and  _414
REMARK  170  A    between atoms: _414  and  _415
REMARK  171  A    between atoms: _425  and  _427
REMARK  172  A    between atoms: _427  and  _428
REMARK  173  A    between atoms: _427  and  _430
REMARK  174  A    between atoms: _430  and  _431
REMARK  175  A    between atoms: _431  and  _432
REMARK  176  A    between atoms: _437  and  _439
REMARK  177  A    between atoms: _439  and  _440
REMARK  178  A    between atoms: _439  and  _442
REMARK  179  A    between atoms: _444  and  _446
REMARK  180  A    between atoms: _446  and  _447
REMARK  181  A    between atoms: _449  and  _451
REMARK  182  A    between atoms: _451  and  _452
REMARK  183  A    between atoms: _451  and  _454
REMARK  184  A    between atoms: _454  and  _455
REMARK  185  A    between atoms: _458  and  _460
REMARK  186  A    between atoms: _460  and  _461
REMARK  187  A    between atoms: _460  and  _463
REMARK  188  A    between atoms: _466  and  _468
REMARK  189  A    between atoms: _468  and  _469
REMARK  190  A    between atoms: _468  and  _471
REMARK  191  A    between atoms: _471  and  _472
REMARK  192  A    between atoms: _472  and  _473
REMARK  193  A    between atoms: _478  and  _480
REMARK  194  A    between atoms: _480  and  _481
REMARK  195  A    between atoms: _480  and  _483
REMARK  196  A    between atoms: _483  and  _484
REMARK  197  A    between atoms: _487  and  _489
REMARK  198  A    between atoms: _489  and  _490
REMARK  199  A    between atoms: _489  and  _492
REMARK  200  A    between atoms: _492  and  _493
REMARK  201  A    between atoms: _496  and  _498
REMARK  202  A    between atoms: _498  and  _499
REMARK  203  A    between atoms: _498  and  _501
REMARK  204  A    between atoms: _501  and  _502
REMARK  205  A    between atoms: _502  and  _503
REMARK  206  A    between atoms: _505  and  _507
REMARK  207  A    between atoms: _507  and  _508
REMARK  208  A    between atoms: _507  and  _510
REMARK  209  A    between atoms: _510  and  _511
REMARK  210  A    between atoms: _514  and  _516
REMARK  211  A    between atoms: _516  and  _517
REMARK  212  A    between atoms: _516  and  _519
REMARK  213  A    between atoms: _519  and  _520
REMARK  214  A    between atoms: _521  and  ZN_632
REMARK  215  A    between atoms: _525  and  _527
REMARK  216  A    between atoms: _527  and  _528
REMARK  217  A    between atoms: _527  and  _530
REMARK  218  A    between atoms: _530  and  _531
REMARK  219  A    between atoms: _531  and  _532
REMARK  220  A    between atoms: _532  and  _533
REMARK  221  A    between atoms: _542  and  _544
REMARK  222  A    between atoms: _544  and  _545
REMARK  223  A    between atoms: _548  and  _550
REMARK  224  A    between atoms: _550  and  _551
REMARK  225  A    between atoms: _550  and  _553
REMARK  226  A    between atoms: _553  and  _554
REMARK  227  A    between atoms: _557  and  _559
REMARK  228  A    between atoms: _559  and  _560
REMARK  229  A    between atoms: _559  and  _562
REMARK  230  A    between atoms: _562  and  _563
REMARK  231  A    between atoms: _566  and  _568
REMARK  232  A    between atoms: _568  and  _569
REMARK  233  A    between atoms: _571  and  _573
REMARK  234  A    between atoms: _573  and  _574
REMARK  235  A    between atoms: _573  and  _576
REMARK  236  A    between atoms: _576  and  _577
REMARK  237  A    between atoms: _579  and  _581
REMARK  238  A    between atoms: _581  and  _582
REMARK  239  A    between atoms: _581  and  _584
REMARK  240  A    between atoms: _584  and  _585
REMARK  241  A    between atoms: _585  and  _586
REMARK  242  A    between atoms: _588  and  _590
REMARK  243  A    between atoms: _590  and  _591
REMARK  244  A    between atoms: _590  and  _593
REMARK  245  A    between atoms: _593  and  _594
REMARK  246  A    between atoms: _594  and  _595
REMARK  247  A    between atoms: _598  and  _600
REMARK  248  A    between atoms: _600  and  _601
REMARK  249  A    between atoms: _600  and  _603
REMARK  250  A    between atoms: _603  and  _604
REMARK  251  A    between atoms: _604  and  _605
REMARK  252  A    between atoms: _605  and  _606
REMARK  253  A    between atoms: _615  and  _617
REMARK  254  A    between atoms: _617  and  _618
REMARK  255  A    between atoms: _617  and  _620
REMARK  256  A    between atoms: _620  and  _621
REMARK  257  A    between atoms: _627  and  _629
REMARK  258  A    between atoms: _629  and  _630
REMARK                            x       y       z     vdW  Elec       q    Type
REMARK                         _______ _______ _______ _____ _____    ______ ____
ROOT
ATOM      1  CA  VAL A   1     -31.504 -32.247  16.353  0.00  0.00    +0.133 C 
ENDROOT
BRANCH   1   2
ATOM      2  CB  VAL A   1     -30.617 -32.536  17.582  0.00  0.00    +0.023 C 
ATOM      3  CG2 VAL A   1     -31.477 -32.686  18.815  0.00  0.00    +0.002 C 
ATOM      4  CG1 VAL A   1     -29.761 -33.800  17.338  0.00  0.00    +0.002 C 
ENDBRANCH   1   2
BRANCH   1   5
ATOM      5  N   VAL A   1     -30.674 -32.139  15.163  0.00  0.00    -0.239 NA
ATOM      6  H   VAL A   1     -29.684 -31.831  15.245  0.00  0.00    +0.142 HD
ENDBRANCH   1   5
BRANCH   1   7
ATOM      7  C   VAL A   1     -32.303 -30.945  16.599  0.00  0.00    +0.224 C 
ATOM      8  O   VAL A   1     -31.761 -29.841  16.460  0.00  0.00    -0.287 OA
ENDBRANCH   1   7
TORSDOF 3
REMARK  Name = ../refined-set-2016/4hwo/4hwo_pocket.pdb
REMARK  258 active torsions:
REMARK  status: ('A' for Active; 'I' for Inactive)
REMARK    1  A    between atoms: _1  and  _3
REMARK    2  A    between atoms: _3  and  _4
REMARK    3  A    between atoms: _6  and  _8
REMARK    4  A    between atoms: _8  and  _9
REMARK    5  A    between atoms: _8  and  _11
REMARK    6  A    between atoms: _14  and  _16
REMARK    7  A    between atoms: _16  and  _17
REMARK    8  A    between atoms: _16  and  _19
REMARK    9  A    between atoms: _19  and  _20
REMARK   10  A    between atoms: _25  and  _27
REMARK   11  A    between atoms: _27  and  _28
REMARK   12  A    between atoms: _27  and  _30
REMARK   13  A    between atoms: _30  and  _31
REMARK   14  A    between atoms: _36  and  _37
REMARK   15  A    between atoms: _40  and  _41
REMARK   16  A    between atoms: _46  and  _48
REMARK   17  A    between atoms: _48  and  _49
REMARK   18  A    between atoms: _48  and  _51
REMARK   19  A    between atoms: _51  and  _52
REMARK   20  A    between atoms: _52  and  _53
REMARK   21  A    between atoms: _55  and  _57
REMARK   22  A    between atoms: _57  and  _58
REMARK   23  A    between atoms: _57  and  _60
REMARK   24  A    between atoms: _60  and  _61
REMARK   25  A    between atoms: _66  and  _68
REMARK   26  A    between atoms: _68  and  _69
REMARK   27  A    between atoms: _68  and  _71
REMARK   28  A    between atoms: _71  and  _72
REMARK   29  A    between atoms: _72  and  ZN_632
REMARK   30  A    between atoms: _74  and  _75
REMARK   31  A    between atoms: _80  and  _82
REMARK   32  A    between atoms: _82  and  _83
REMARK   33  A    between atoms: _82  and  _85
REMARK   34  A    between atoms: _85  and  _86
REMARK   35  A    between atoms: _91  and  _93
REMARK   36  A    between atoms: _93  and  _94
REMARK   37  A    between atoms: _93  and  _96
REMARK   38  A    between atoms: _98  and  _100
REMARK   39  A    between atoms: _100  and  _101
REMARK   40  A    between atoms: _100  and  _103
REMARK   41  A    between atoms: _103  and  _104
REMARK   42  A    between atoms: _109  and  _111
REMARK   43  A    between atoms: _111  and  _112
REMARK   44  A    between atoms: _111  and  _114
REMARK   45  A    between atoms: _114  and  _115
REMARK   46  A    between atoms: _115  and  _116
REMARK   47  A    between atoms: _116  and  _117
REMARK   48  A    between atoms: _126  and  _128
REMARK   49  A    between atoms: _128  and  _129
REMARK   50  A    between atoms: _128  and  _131
REMARK   51  A    between atoms: _131  and  _132
REMARK   52  A    between atoms: _137  and  _139
REMARK   53  A    between atoms: _139  and  _140
REMARK   54  A    between atoms: _139  and  _142
REMARK   55  A    between atoms: _142  and  _143
REMARK   56  A    between atoms: _143  and  _144
REMARK   57  A    between atoms: _147  and  _149
REMARK   58  A    between atoms: _149  and  _150
REMARK   59  A    between atoms: _149  and  _152
REMARK   60  A    between atoms: _152  and  _153
REMARK   61  A    between atoms: _155  and  _157
REMARK   62  A    between atoms: _157  and  _158
REMARK   63  A    between atoms: _157  and  _160
REMARK   64  A    between atoms: _160  and  _161
REMARK   65  A    between atoms: _164  and  _166
REMARK   66  A    between atoms: _166  and  _167
REMARK   67  A    between atoms: _166  and  _169
REMARK   68  A    between atoms: _169  and  _170
REMARK   69  A    between atoms: _175  and  _177
REMARK   70  A    between atoms: _177  and  _178
REMARK   71  A    between atoms: _180  and  _182
REMARK   72  A    between atoms: _182  and  _183
REMARK   73  A    between atoms: _182  and  _185
REMARK   74  A    between atoms: _185  and  _186
REMARK   75  A    between atoms: _189  and  _191
REMARK   76  A    between atoms: _191  and  _192
REMARK   77  A    between atoms: _191  and  _194
REMARK   78  A    between atoms: _194  and  _195
REMARK   79  A    between atoms: _195  and  _196
REMARK   80  A    between atoms: _198  and  _200
REMARK   81  A    between atoms: _200  and  _201
REMARK   82  A    between atoms: _200  and  _203
REMARK   83  A    between atoms: _203  and  _204
REMARK   84  A    between atoms: _204  and  _205
REMARK   85  A    between atoms: _205  and  _206
REMARK   86  A    between atoms: _215  and  _217
REMARK   87  A    between atoms: _217  and  _218
REMARK   88  A    between atoms: _217  and  _220
REMARK   89  A    between atoms: _223  and  _225
REMARK   90  A    between atoms: _225  and  _226
REMARK   91  A    between atoms: _225  and  _228
REMARK   92  A    between atoms: _228  and  _229
REMARK   93  A    between atoms: _229  and  _230
REMARK   94  A    between atoms: _230  and  _231
REMARK   95  A    between atoms: _240  and  _242
REMARK   96  A    between atoms: _242  and  _243
REMARK   97  A    between atoms: _245  and  _247
REMARK   98  A    between atoms: _247  and  _248
REMARK   99  A    between atoms: _247  and  _250
REMARK  100  A    between atoms: _250  and  _251
REMARK  101  A    between atoms: _257  and  _259
REMARK  102  A    between atoms: _259  and  _260
REMARK  103  A    between atoms: _259  and  _262
REMARK  104  A    between atoms: _262  and  _263
REMARK  105  A    between atoms: _266  and  _268
REMARK  106  A    between atoms: _268  and  _269
REMARK  107  A    between atoms: _268  and  _271
REMARK  108  A    between atoms: _271  and  _272
REMARK  109  A    between atoms: _272  and  _273
REMARK  110  A    between atoms: _278  and  _280
REMARK  111  A    between atoms: _280  and  _281
REMARK  112  A    between atoms: _280  and  _283
REMARK  113  A    between atoms: _283  and  _284
REMARK  114  A    between atoms: _287  and  _289
REMARK  115  A    between atoms: _289  and  _290
REMARK  116  A    between atoms: _289  and  _292
REMARK  117  A    between atoms: _292  and  _293
REMARK  118  A    between atoms: _296  and  _298
REMARK  119  A    between atoms: _298  and  _299
REMARK  120  A    between atoms: _302  and  _304
REMARK  121  A    between atoms: _304  and  _305
REMARK  122  A    between atoms: _304  and  _307
REMARK  123  A    between atoms: _307  and  _308
REMARK  124  A    between atoms: _312  and  ZN_632
REMARK  125  A    between atoms: _313  and  _315
REMARK  126  A    between atoms: _315  and  _316
REMARK  127  A    between atoms: _315  and  _318
REMARK  128  A    between atoms: _318  and  _319
REMARK  129  A    between atoms: _322  and  _324
REMARK  130  A    between atoms: _324  and  _325
REMARK  131  A    between atoms: _324  and  _327
REMARK  132  A    between atoms: _327  and  _328
REMARK  133  A    between atoms: _330  and  _332
REMARK  134  A    between atoms: _332  and  _333
REMARK  135  A    between atoms: _332  and  _335
REMARK  136  A    between atoms: _335  and  _336
REMARK  137  A    between atoms: _336  and  _337
REMARK  138  A    between atoms: _340  and  _342
REMARK  139  A    between atoms: _342  and  _343
REMARK  140  A    between atoms: _345  and  _347
REMARK  141  A    between atoms: _347  and  _348
REMARK  142  A    between atoms: _351  and  _353
REMARK  143  A    between atoms: _353  and  _354
REMARK  144  A    between atoms: _353  and  _356
REMARK  145  A    between atoms: _356  and  _357
REMARK  146  A    between atoms: _363  and  _365
REMARK  147  A    between atoms: _365  and  _366
REMARK  148  A    between atoms: _365  and  _368
REMARK  149  A    between atoms: _368  and  _369
REMARK  150  A    between atoms: _374  and  _375
REMARK  151  A    between atoms: _377  and  _379
REMARK  152  A    between atoms: _379  and  _380
REMARK  153  A    between atoms: _379  and  _382
REMARK  154  A    between atoms: _382  and  _383
REMARK  155  A    between atoms: _383  and  _384
REMARK  156  A    between atoms: _384  and  _385
REMARK  157  A    between atoms: _385  and  _386
REMARK  158  A    between atoms: _390  and  _392
REMARK  159  A    between atoms: _392  and  _393
REMARK  160  A    between atoms: _392  and  _395
REMARK  161  A    between atoms: _395  and  _396
REMARK  162  A    between atoms: _399  and  _401
REMARK  163  A    between atoms: _401  and  _402
REMARK  164  A    between atoms: _401  and  _404
REMARK  165  A    between atoms: _404  and  _405
REMARK  166  A    between atoms: _405  and  _406
REMARK  167  A    between atoms: _409  and  _411
REMARK  168  A    between atoms: _411  and  _412
REMARK  169  A    between atoms: _411  and  _414
REMARK  170  A    between atoms: _414  and  _415
REMARK  171  A    between atoms: _425  and  _427
REMARK  172  A    between atoms: _427  and  _428
REMARK  173  A    between atoms: _427  and  _430
REMARK  174  A    between atoms: _430  and  _431
REMARK  175  A    between atoms: _431  and  _432
REMARK  176  A    between atoms: _437  and  _439
REMARK  177  A    between atoms: _439  and  _440
REMARK  178  A    between atoms: _439  and  _442
REMARK  179  A    between atoms: _444  and  _446
REMARK  180  A    between atoms: _446  and  _447
REMARK  181  A    between atoms: _449  and  _451
REMARK  182  A    between atoms: _451  and  _452
REMARK  183  A    between atoms: _451  and  _454
REMARK  184  A    between atoms: _454  and  _455
REMARK  185  A    between atoms: _458  and  _460
REMARK  186  A    between atoms: _460  and  _461
REMARK  187  A    between atoms: _460  and  _463
REMARK  188  A    between atoms: _466  and  _468
REMARK  189  A    between atoms: _468  and  _469
REMARK  190  A    between atoms: _468  and  _471
REMARK  191  A    between atoms: _471  and  _472
REMARK  192  A    between atoms: _472  and  _473
REMARK  193  A    between atoms: _478  and  _480
REMARK  194  A    between atoms: _480  and  _481
REMARK  195  A    between atoms: _480  and  _483
REMARK  196  A    between atoms: _483  and  _484
REMARK  197  A    between atoms: _487  and  _489
REMARK  198  A    between atoms: _489  and  _490
REMARK  199  A    between atoms: _489  and  _492
REMARK  200  A    between atoms: _492  and  _493
REMARK  201  A    between atoms: _496  and  _498
REMARK  202  A    between atoms: _498  and  _499
REMARK  203  A    between atoms: _498  and  _501
REMARK  204  A    between atoms: _501  and  _502
REMARK  205  A    between atoms: _502  and  _503
REMARK  206  A    between atoms: _505  and  _507
REMARK  207  A    between atoms: _507  and  _508
REMARK  208  A    between atoms: _507  and  _510
REMARK  209  A    between atoms: _510  and  _511
REMARK  210  A    between atoms: _514  and  _516
REMARK  211  A    between atoms: _516  and  _517
REMARK  212  A    between atoms: _516  and  _519
REMARK  213  A    between atoms: _519  and  _520
REMARK  214  A    between atoms: _521  and  ZN_632
REMARK  215  A    between atoms: _525  and  _527
REMARK  216  A    between atoms: _527  and  _528
REMARK  217  A    between atoms: _527  and  _530
REMARK  218  A    between atoms: _530  and  _531
REMARK  219  A    between atoms: _531  and  _532
REMARK  220  A    between atoms: _532  and  _533
REMARK  221  A    between atoms: _542  and  _544
REMARK  222  A    between atoms: _544  and  _545
REMARK  223  A    between atoms: _548  and  _550
REMARK  224  A    between atoms: _550  and  _551
REMARK  225  A    between atoms: _550  and  _553
REMARK  226  A    between atoms: _553  and  _554
REMARK  227  A    between atoms: _557  and  _559
REMARK  228  A    between atoms: _559  and  _560
REMARK  229  A    between atoms: _559  and  _562
REMARK  230  A    between atoms: _562  and  _563
REMARK  231  A    between atoms: _566  and  _568
REMARK  232  A    between atoms: _568  and  _569
REMARK  233  A    between atoms: _571  and  _573
REMARK  234  A    between atoms: _573  and  _574
REMARK  235  A    between atoms: _573  and  _576
REMARK  236  A    between atoms: _576  and  _577
REMARK  237  A    between atoms: _579  and  _581
REMARK  238  A    between atoms: _581  and  _582
REMARK  239  A    between atoms: _581  and  _584
REMARK  240  A    between atoms: _584  and  _585
REMARK  241  A    between atoms: _585  and  _586
REMARK  242  A    between atoms: _588  and  _590
REMARK  243  A    between atoms: _590  and  _591
REMARK  244  A    between atoms: _590  and  _593
REMARK  245  A    between atoms: _593  and  _594
REMARK  246  A    between atoms: _594  and  _595
REMARK  247  A    between atoms: _598  and  _600
REMARK  248  A    between atoms: _600  and  _601
REMARK  249  A    between atoms: _600  and  _603
REMARK  250  A    between atoms: _603  and  _604
REMARK  251  A    between atoms: _604  and  _605
REMARK  252  A    between atoms: _605  and  _606
REMARK  253  A    between atoms: _615  and  _617
REMARK  254  A    between atoms: _617  and  _618
REMARK  255  A    between atoms: _617  and  _620
REMARK  256  A    between atoms: _620  and  _621
REMARK  257  A    between atoms: _627  and  _629
REMARK  258  A    between atoms: _629  and  _630
REMARK                            x       y       z     vdW  Elec       q    Type
REMARK                         _______ _______ _______ _____ _____    ______ ____
ROOT
ATOM      1  CB  HIS A   1      -9.817 -32.058   6.269  0.00  0.00    +0.072 C 
ENDROOT
BRANCH   1   2
ATOM      2  CG  HIS A   1      -9.699 -32.099   7.744  0.00  0.00    +0.082 A 
ATOM      3  CD2 HIS A   1     -10.466 -32.756   8.715  0.00  0.00    +0.115 A 
ATOM      4  NE2 HIS A   1      -9.913 -32.468   9.943  0.00  0.00    -0.221 NA
ATOM      5  CE1 HIS A   1      -8.847 -31.655   9.752  0.00  0.00    +0.199 A 
ATOM      6  ND1 HIS A   1      -8.710 -31.462   8.390  0.00  0.00    -0.227 NA
ENDBRANCH   1   2
BRANCH   1   7
ATOM      7  CA  HIS A   1      -8.968 -33.101   5.582  0.00  0.00    +0.139 C 
BRANCH   7   8
ATOM      8  N   HIS A   1      -7.517 -32.742   5.538  0.00  0.00    -0.239 NA
ATOM      9  H   HIS A   1      -7.195 -31.840   5.944  0.00  0.00    +0.142 HD
ENDBRANCH   7   8
BRANCH   7  10
ATOM     10  C   HIS A   1      -9.612 -33.341   4.265  0.00  0.00    +0.224 C 
ATOM     11  O   HIS A   1     -10.452 -34.247   4.147  0.00  0.00    -0.287 OA
ENDBRANCH   7  10
ENDBRANCH   1   7
TORSDOF 4
REMARK  Name = ../refined-set-2016/4hwo/4hwo_pocket.pdb
REMARK  258 active torsions:
REMARK  status: ('A' for Active; 'I' for Inactive)
REMARK    1  A    between atoms: _1  and  _3
REMARK    2  A    between atoms: _3  and  _4
REMARK    3  A    between atoms: _6  and  _8
REMARK    4  A    between atoms: _8  and  _9
REMARK    5  A    between atoms: _8  and  _11
REMARK    6  A    between atoms: _14  and  _16
REMARK    7  A    between atoms: _16  and  _17
REMARK    8  A    between atoms: _16  and  _19
REMARK    9  A    between atoms: _19  and  _20
REMARK   10  A    between atoms: _25  and  _27
REMARK   11  A    between atoms: _27  and  _28
REMARK   12  A    between atoms: _27  and  _30
REMARK   13  A    between atoms: _30  and  _31
REMARK   14  A    between atoms: _36  and  _37
REMARK   15  A    between atoms: _40  and  _41
REMARK   16  A    between atoms: _46  and  _48
REMARK   17  A    between atoms: _48  and  _49
REMARK   18  A    between atoms: _48  and  _51
REMARK   19  A    between atoms: _51  and  _52
REMARK   20  A    between atoms: _52  and  _53
REMARK   21  A    between atoms: _55  and  _57
REMARK   22  A    between atoms: _57  and  _58
REMARK   23  A    between atoms: _57  and  _60
REMARK   24  A    between atoms: _60  and  _61
REMARK   25  A    between atoms: _66  and  _68
REMARK   26  A    between atoms: _68  and  _69
REMARK   27  A    between atoms: _68  and  _71
REMARK   28  A    between atoms: _71  and  _72
REMARK   29  A    between atoms: _72  and  ZN_632
REMARK   30  A    between atoms: _74  and  _75
REMARK   31  A    between atoms: _80  and  _82
REMARK   32  A    between atoms: _82  and  _83
REMARK   33  A    between atoms: _82  and  _85
REMARK   34  A    between atoms: _85  and  _86
REMARK   35  A    between atoms: _91  and  _93
REMARK   36  A    between atoms: _93  and  _94
REMARK   37  A    between atoms: _93  and  _96
REMARK   38  A    between atoms: _98  and  _100
REMARK   39  A    between atoms: _100  and  _101
REMARK   40  A    between atoms: _100  and  _103
REMARK   41  A    between atoms: _103  and  _104
REMARK   42  A    between atoms: _109  and  _111
REMARK   43  A    between atoms: _111  and  _112
REMARK   44  A    between atoms: _111  and  _114
REMARK   45  A    between atoms: _114  and  _115
REMARK   46  A    between atoms: _115  and  _116
REMARK   47  A    between atoms: _116  and  _117
REMARK   48  A    between atoms: _126  and  _128
REMARK   49  A    between atoms: _128  and  _129
REMARK   50  A    between atoms: _128  and  _131
REMARK   51  A    between atoms: _131  and  _132
REMARK   52  A    between atoms: _137  and  _139
REMARK   53  A    between atoms: _139  and  _140
REMARK   54  A    between atoms: _139  and  _142
REMARK   55  A    between atoms: _142  and  _143
REMARK   56  A    between atoms: _143  and  _144
REMARK   57  A    between atoms: _147  and  _149
REMARK   58  A    between atoms: _149  and  _150
REMARK   59  A    between atoms: _149  and  _152
REMARK   60  A    between atoms: _152  and  _153
REMARK   61  A    between atoms: _155  and  _157
REMARK   62  A    between atoms: _157  and  _158
REMARK   63  A    between atoms: _157  and  _160
REMARK   64  A    between atoms: _160  and  _161
REMARK   65  A    between atoms: _164  and  _166
REMARK   66  A    between atoms: _166  and  _167
REMARK   67  A    between atoms: _166  and  _169
REMARK   68  A    between atoms: _169  and  _170
REMARK   69  A    between atoms: _175  and  _177
REMARK   70  A    between atoms: _177  and  _178
REMARK   71  A    between atoms: _180  and  _182
REMARK   72  A    between atoms: _182  and  _183
REMARK   73  A    between atoms: _182  and  _185
REMARK   74  A    between atoms: _185  and  _186
REMARK   75  A    between atoms: _189  and  _191
REMARK   76  A    between atoms: _191  and  _192
REMARK   77  A    between atoms: _191  and  _194
REMARK   78  A    between atoms: _194  and  _195
REMARK   79  A    between atoms: _195  and  _196
REMARK   80  A    between atoms: _198  and  _200
REMARK   81  A    between atoms: _200  and  _201
REMARK   82  A    between atoms: _200  and  _203
REMARK   83  A    between atoms: _203  and  _204
REMARK   84  A    between atoms: _204  and  _205
REMARK   85  A    between atoms: _205  and  _206
REMARK   86  A    between atoms: _215  and  _217
REMARK   87  A    between atoms: _217  and  _218
REMARK   88  A    between atoms: _217  and  _220
REMARK   89  A    between atoms: _223  and  _225
REMARK   90  A    between atoms: _225  and  _226
REMARK   91  A    between atoms: _225  and  _228
REMARK   92  A    between atoms: _228  and  _229
REMARK   93  A    between atoms: _229  and  _230
REMARK   94  A    between atoms: _230  and  _231
REMARK   95  A    between atoms: _240  and  _242
REMARK   96  A    between atoms: _242  and  _243
REMARK   97  A    between atoms: _245  and  _247
REMARK   98  A    between atoms: _247  and  _248
REMARK   99  A    between atoms: _247  and  _250
REMARK  100  A    between atoms: _250  and  _251
REMARK  101  A    between atoms: _257  and  _259
REMARK  102  A    between atoms: _259  and  _260
REMARK  103  A    between atoms: _259  and  _262
REMARK  104  A    between atoms: _262  and  _263
REMARK  105  A    between atoms: _266  and  _268
REMARK  106  A    between atoms: _268  and  _269
REMARK  107  A    between atoms: _268  and  _271
REMARK  108  A    between atoms: _271  and  _272
REMARK  109  A    between atoms: _272  and  _273
REMARK  110  A    between atoms: _278  and  _280
REMARK  111  A    between atoms: _280  and  _281
REMARK  112  A    between atoms: _280  and  _283
REMARK  113  A    between atoms: _283  and  _284
REMARK  114  A    between atoms: _287  and  _289
REMARK  115  A    between atoms: _289  and  _290
REMARK  116  A    between atoms: _289  and  _292
REMARK  117  A    between atoms: _292  and  _293
REMARK  118  A    between atoms: _296  and  _298
REMARK  119  A    between atoms: _298  and  _299
REMARK  120  A    between atoms: _302  and  _304
REMARK  121  A    between atoms: _304  and  _305
REMARK  122  A    between atoms: _304  and  _307
REMARK  123  A    between atoms: _307  and  _308
REMARK  124  A    between atoms: _312  and  ZN_632
REMARK  125  A    between atoms: _313  and  _315
REMARK  126  A    between atoms: _315  and  _316
REMARK  127  A    between atoms: _315  and  _318
REMARK  128  A    between atoms: _318  and  _319
REMARK  129  A    between atoms: _322  and  _324
REMARK  130  A    between atoms: _324  and  _325
REMARK  131  A    between atoms: _324  and  _327
REMARK  132  A    between atoms: _327  and  _328
REMARK  133  A    between atoms: _330  and  _332
REMARK  134  A    between atoms: _332  and  _333
REMARK  135  A    between atoms: _332  and  _335
REMARK  136  A    between atoms: _335  and  _336
REMARK  137  A    between atoms: _336  and  _337
REMARK  138  A    between atoms: _340  and  _342
REMARK  139  A    between atoms: _342  and  _343
REMARK  140  A    between atoms: _345  and  _347
REMARK  141  A    between atoms: _347  and  _348
REMARK  142  A    between atoms: _351  and  _353
REMARK  143  A    between atoms: _353  and  _354
REMARK  144  A    between atoms: _353  and  _356
REMARK  145  A    between atoms: _356  and  _357
REMARK  146  A    between atoms: _363  and  _365
REMARK  147  A    between atoms: _365  and  _366
REMARK  148  A    between atoms: _365  and  _368
REMARK  149  A    between atoms: _368  and  _369
REMARK  150  A    between atoms: _374  and  _375
REMARK  151  A    between atoms: _377  and  _379
REMARK  152  A    between atoms: _379  and  _380
REMARK  153  A    between atoms: _379  and  _382
REMARK  154  A    between atoms: _382  and  _383
REMARK  155  A    between atoms: _383  and  _384
REMARK  156  A    between atoms: _384  and  _385
REMARK  157  A    between atoms: _385  and  _386
REMARK  158  A    between atoms: _390  and  _392
REMARK  159  A    between atoms: _392  and  _393
REMARK  160  A    between atoms: _392  and  _395
REMARK  161  A    between atoms: _395  and  _396
REMARK  162  A    between atoms: _399  and  _401
REMARK  163  A    between atoms: _401  and  _402
REMARK  164  A    between atoms: _401  and  _404
REMARK  165  A    between atoms: _404  and  _405
REMARK  166  A    between atoms: _405  and  _406
REMARK  167  A    between atoms: _409  and  _411
REMARK  168  A    between atoms: _411  and  _412
REMARK  169  A    between atoms: _411  and  _414
REMARK  170  A    between atoms: _414  and  _415
REMARK  171  A    between atoms: _425  and  _427
REMARK  172  A    between atoms: _427  and  _428
REMARK  173  A    between atoms: _427  and  _430
REMARK  174  A    between atoms: _430  and  _431
REMARK  175  A    between atoms: _431  and  _432
REMARK  176  A    between atoms: _437  and  _439
REMARK  177  A    between atoms: _439  and  _440
REMARK  178  A    between atoms: _439  and  _442
REMARK  179  A    between atoms: _444  and  _446
REMARK  180  A    between atoms: _446  and  _447
REMARK  181  A    between atoms: _449  and  _451
REMARK  182  A    between atoms: _451  and  _452
REMARK  183  A    between atoms: _451  and  _454
REMARK  184  A    between atoms: _454  and  _455
REMARK  185  A    between atoms: _458  and  _460
REMARK  186  A    between atoms: _460  and  _461
REMARK  187  A    between atoms: _460  and  _463
REMARK  188  A    between atoms: _466  and  _468
REMARK  189  A    between atoms: _468  and  _469
REMARK  190  A    between atoms: _468  and  _471
REMARK  191  A    between atoms: _471  and  _472
REMARK  192  A    between atoms: _472  and  _473
REMARK  193  A    between atoms: _478  and  _480
REMARK  194  A    between atoms: _480  and  _481
REMARK  195  A    between atoms: _480  and  _483
REMARK  196  A    between atoms: _483  and  _484
REMARK  197  A    between atoms: _487  and  _489
REMARK  198  A    between atoms: _489  and  _490
REMARK  199  A    between atoms: _489  and  _492
REMARK  200  A    between atoms: _492  and  _493
REMARK  201  A    between atoms: _496  and  _498
REMARK  202  A    between atoms: _498  and  _499
REMARK  203  A    between atoms: _498  and  _501
REMARK  204  A    between atoms: _501  and  _502
REMARK  205  A    between atoms: _502  and  _503
REMARK  206  A    between atoms: _505  and  _507
REMARK  207  A    between atoms: _507  and  _508
REMARK  208  A    between atoms: _507  and  _510
REMARK  209  A    between atoms: _510  and  _511
REMARK  210  A    between atoms: _514  and  _516
REMARK  211  A    between atoms: _516  and  _517
REMARK  212  A    between atoms: _516  and  _519
REMARK  213  A    between atoms: _519  and  _520
REMARK  214  A    between atoms: _521  and  ZN_632
REMARK  215  A    between atoms: _525  and  _527
REMARK  216  A    between atoms: _527  and  _528
REMARK  217  A    between atoms: _527  and  _530
REMARK  218  A    between atoms: _530  and  _531
REMARK  219  A    between atoms: _531  and  _532
REMARK  220  A    between atoms: _532  and  _533
REMARK  221  A    between atoms: _542  and  _544
REMARK  222  A    between atoms: _544  and  _545
REMARK  223  A    between atoms: _548  and  _550
REMARK  224  A    between atoms: _550  and  _551
REMARK  225  A    between atoms: _550  and  _553
REMARK  226  A    between atoms: _553  and  _554
REMARK  227  A    between atoms: _557  and  _559
REMARK  228  A    between atoms: _559  and  _560
REMARK  229  A    between atoms: _559  and  _562
REMARK  230  A    between atoms: _562  and  _563
REMARK  231  A    between atoms: _566  and  _568
REMARK  232  A    between atoms: _568  and  _569
REMARK  233  A    between atoms: _571  and  _573
REMARK  234  A    between atoms: _573  and  _574
REMARK  235  A    between atoms: _573  and  _576
REMARK  236  A    between atoms: _576  and  _577
REMARK  237  A    between atoms: _579  and  _581
REMARK  238  A    between atoms: _581  and  _582
REMARK  239  A    between atoms: _581  and  _584
REMARK  240  A    between atoms: _584  and  _585
REMARK  241  A    between atoms: _585  and  _586
REMARK  242  A    between atoms: _588  and  _590
REMARK  243  A    between atoms: _590  and  _591
REMARK  244  A    between atoms: _590  and  _593
REMARK  245  A    between atoms: _593  and  _594
REMARK  246  A    between atoms: _594  and  _595
REMARK  247  A    between atoms: _598  and  _600
REMARK  248  A    between atoms: _600  and  _601
REMARK  249  A    between atoms: _600  and  _603
REMARK  250  A    between atoms: _603  and  _604
REMARK  251  A    between atoms: _604  and  _605
REMARK  252  A    between atoms: _605  and  _606
REMARK  253  A    between atoms: _615  and  _617
REMARK  254  A    between atoms: _617  and  _618
REMARK  255  A    between atoms: _617  and  _620
REMARK  256  A    between atoms: _620  and  _621
REMARK  257  A    between atoms: _627  and  _629
REMARK  258  A    between atoms: _629  and  _630
REMARK                            x       y       z     vdW  Elec       q    Type
REMARK                         _______ _______ _______ _____ _____    ______ ____
ROOT
ATOM      1  CG  TYR A   1     -12.572 -36.144   7.531  0.00  0.00    -0.020 A 
ATOM      2  CD2 TYR A   1     -12.087 -37.189   8.325  0.00  0.00    -0.001 A 
ATOM      3  CE2 TYR A   1     -12.795 -37.647   9.421  0.00  0.00    +0.036 A 
ATOM      4  CZ  TYR A   1     -14.007 -37.073   9.737  0.00  0.00    +0.134 A 
ATOM      5  CE1 TYR A   1     -14.529 -36.026   8.977  0.00  0.00    +0.036 A 
ATOM      6  CD1 TYR A   1     -13.808 -35.577   7.864  0.00  0.00    -0.001 A 
ENDROOT
BRANCH   4   7
ATOM      7  OH  TYR A   1     -14.721 -37.537  10.817  0.00  0.00    -0.506 OA
ATOM      8  HH  TYR A   1     -14.934 -38.495  10.684  0.00  0.00    +0.292 HD
ENDBRANCH   4   7
BRANCH   1   9
ATOM      9  CB  TYR A   1     -11.807 -35.684   6.305  0.00  0.00    +0.051 C 
BRANCH   9  10
ATOM     10  CA  TYR A   1     -12.074 -36.595   5.084  0.00  0.00    +0.137 C 
BRANCH  10  11
ATOM     11  N   TYR A   1     -10.837 -36.824   4.358  0.00  0.00    -0.239 NA
ATOM     12  H   TYR A   1     -10.549 -36.152   3.618  0.00  0.00    +0.142 HD
ENDBRANCH  10  11
BRANCH  10  13
ATOM     13  C   TYR A   1     -13.175 -36.019   4.180  0.00  0.00    +0.224 C 
ATOM     14  O   TYR A   1     -14.218 -35.598   4.676  0.00  0.00    -0.287 OA
ENDBRANCH  10  13
ENDBRANCH   9  10
ENDBRANCH   1   9
TORSDOF 5
REMARK  Name = ../refined-set-2016/4hwo/4hwo_pocket.pdb
REMARK  258 active torsions:
REMARK  status: ('A' for Active; 'I' for Inactive)
REMARK    1  A    between atoms: _1  and  _3
REMARK    2  A    between atoms: _3  and  _4
REMARK    3  A    between atoms: _6  and  _8
REMARK    4  A    between atoms: _8  and  _9
REMARK    5  A    between atoms: _8  and  _11
REMARK    6  A    between atoms: _14  and  _16
REMARK    7  A    between atoms: _16  and  _17
REMARK    8  A    between atoms: _16  and  _19
REMARK    9  A    between atoms: _19  and  _20
REMARK   10  A    between atoms: _25  and  _27
REMARK   11  A    between atoms: _27  and  _28
REMARK   12  A    between atoms: _27  and  _30
REMARK   13  A    between atoms: _30  and  _31
REMARK   14  A    between atoms: _36  and  _37
REMARK   15  A    between atoms: _40  and  _41
REMARK   16  A    between atoms: _46  and  _48
REMARK   17  A    between atoms: _48  and  _49
REMARK   18  A    between atoms: _48  and  _51
REMARK   19  A    between atoms: _51  and  _52
REMARK   20  A    between atoms: _52  and  _53
REMARK   21  A    between atoms: _55  and  _57
REMARK   22  A    between atoms: _57  and  _58
REMARK   23  A    between atoms: _57  and  _60
REMARK   24  A    between atoms: _60  and  _61
REMARK   25  A    between atoms: _66  and  _68
REMARK   26  A    between atoms: _68  and  _69
REMARK   27  A    between atoms: _68  and  _71
REMARK   28  A    between atoms: _71  and  _72
REMARK   29  A    between atoms: _72  and  ZN_632
REMARK   30  A    between atoms: _74  and  _75
REMARK   31  A    between atoms: _80  and  _82
REMARK   32  A    between atoms: _82  and  _83
REMARK   33  A    between atoms: _82  and  _85
REMARK   34  A    between atoms: _85  and  _86
REMARK   35  A    between atoms: _91  and  _93
REMARK   36  A    between atoms: _93  and  _94
REMARK   37  A    between atoms: _93  and  _96
REMARK   38  A    between atoms: _98  and  _100
REMARK   39  A    between atoms: _100  and  _101
REMARK   40  A    between atoms: _100  and  _103
REMARK   41  A    between atoms: _103  and  _104
REMARK   42  A    between atoms: _109  and  _111
REMARK   43  A    between atoms: _111  and  _112
REMARK   44  A    between atoms: _111  and  _114
REMARK   45  A    between atoms: _114  and  _115
REMARK   46  A    between atoms: _115  and  _116
REMARK   47  A    between atoms: _116  and  _117
REMARK   48  A    between atoms: _126  and  _128
REMARK   49  A    between atoms: _128  and  _129
REMARK   50  A    between atoms: _128  and  _131
REMARK   51  A    between atoms: _131  and  _132
REMARK   52  A    between atoms: _137  and  _139
REMARK   53  A    between atoms: _139  and  _140
REMARK   54  A    between atoms: _139  and  _142
REMARK   55  A    between atoms: _142  and  _143
REMARK   56  A    between atoms: _143  and  _144
REMARK   57  A    between atoms: _147  and  _149
REMARK   58  A    between atoms: _149  and  _150
REMARK   59  A    between atoms: _149  and  _152
REMARK   60  A    between atoms: _152  and  _153
REMARK   61  A    between atoms: _155  and  _157
REMARK   62  A    between atoms: _157  and  _158
REMARK   63  A    between atoms: _157  and  _160
REMARK   64  A    between atoms: _160  and  _161
REMARK   65  A    between atoms: _164  and  _166
REMARK   66  A    between atoms: _166  and  _167
REMARK   67  A    between atoms: _166  and  _169
REMARK   68  A    between atoms: _169  and  _170
REMARK   69  A    between atoms: _175  and  _177
REMARK   70  A    between atoms: _177  and  _178
REMARK   71  A    between atoms: _180  and  _182
REMARK   72  A    between atoms: _182  and  _183
REMARK   73  A    between atoms: _182  and  _185
REMARK   74  A    between atoms: _185  and  _186
REMARK   75  A    between atoms: _189  and  _191
REMARK   76  A    between atoms: _191  and  _192
REMARK   77  A    between atoms: _191  and  _194
REMARK   78  A    between atoms: _194  and  _195
REMARK   79  A    between atoms: _195  and  _196
REMARK   80  A    between atoms: _198  and  _200
REMARK   81  A    between atoms: _200  and  _201
REMARK   82  A    between atoms: _200  and  _203
REMARK   83  A    between atoms: _203  and  _204
REMARK   84  A    between atoms: _204  and  _205
REMARK   85  A    between atoms: _205  and  _206
REMARK   86  A    between atoms: _215  and  _217
REMARK   87  A    between atoms: _217  and  _218
REMARK   88  A    between atoms: _217  and  _220
REMARK   89  A    between atoms: _223  and  _225
REMARK   90  A    between atoms: _225  and  _226
REMARK   91  A    between atoms: _225  and  _228
REMARK   92  A    between atoms: _228  and  _229
REMARK   93  A    between atoms: _229  and  _230
REMARK   94  A    between atoms: _230  and  _231
REMARK   95  A    between atoms: _240  and  _242
REMARK   96  A    between atoms: _242  and  _243
REMARK   97  A    between atoms: _245  and  _247
REMARK   98  A    between atoms: _247  and  _248
REMARK   99  A    between atoms: _247  and  _250
REMARK  100  A    between atoms: _250  and  _251
REMARK  101  A    between atoms: _257  and  _259
REMARK  102  A    between atoms: _259  and  _260
REMARK  103  A    between atoms: _259  and  _262
REMARK  104  A    between atoms: _262  and  _263
REMARK  105  A    between atoms: _266  and  _268
REMARK  106  A    between atoms: _268  and  _269
REMARK  107  A    between atoms: _268  and  _271
REMARK  108  A    between atoms: _271  and  _272
REMARK  109  A    between atoms: _272  and  _273
REMARK  110  A    between atoms: _278  and  _280
REMARK  111  A    between atoms: _280  and  _281
REMARK  112  A    between atoms: _280  and  _283
REMARK  113  A    between atoms: _283  and  _284
REMARK  114  A    between atoms: _287  and  _289
REMARK  115  A    between atoms: _289  and  _290
REMARK  116  A    between atoms: _289  and  _292
REMARK  117  A    between atoms: _292  and  _293
REMARK  118  A    between atoms: _296  and  _298
REMARK  119  A    between atoms: _298  and  _299
REMARK  120  A    between atoms: _302  and  _304
REMARK  121  A    between atoms: _304  and  _305
REMARK  122  A    between atoms: _304  and  _307
REMARK  123  A    between atoms: _307  and  _308
REMARK  124  A    between atoms: _312  and  ZN_632
REMARK  125  A    between atoms: _313  and  _315
REMARK  126  A    between atoms: _315  and  _316
REMARK  127  A    between atoms: _315  and  _318
REMARK  128  A    between atoms: _318  and  _319
REMARK  129  A    between atoms: _322  and  _324
REMARK  130  A    between atoms: _324  and  _325
REMARK  131  A    between atoms: _324  and  _327
REMARK  132  A    between atoms: _327  and  _328
REMARK  133  A    between atoms: _330  and  _332
REMARK  134  A    between atoms: _332  and  _333
REMARK  135  A    between atoms: _332  and  _335
REMARK  136  A    between atoms: _335  and  _336
REMARK  137  A    between atoms: _336  and  _337
REMARK  138  A    between atoms: _340  and  _342
REMARK  139  A    between atoms: _342  and  _343
REMARK  140  A    between atoms: _345  and  _347
REMARK  141  A    between atoms: _347  and  _348
REMARK  142  A    between atoms: _351  and  _353
REMARK  143  A    between atoms: _353  and  _354
REMARK  144  A    between atoms: _353  and  _356
REMARK  145  A    between atoms: _356  and  _357
REMARK  146  A    between atoms: _363  and  _365
REMARK  147  A    between atoms: _365  and  _366
REMARK  148  A    between atoms: _365  and  _368
REMARK  149  A    between atoms: _368  and  _369
REMARK  150  A    between atoms: _374  and  _375
REMARK  151  A    between atoms: _377  and  _379
REMARK  152  A    between atoms: _379  and  _380
REMARK  153  A    between atoms: _379  and  _382
REMARK  154  A    between atoms: _382  and  _383
REMARK  155  A    between atoms: _383  and  _384
REMARK  156  A    between atoms: _384  and  _385
REMARK  157  A    between atoms: _385  and  _386
REMARK  158  A    between atoms: _390  and  _392
REMARK  159  A    between atoms: _392  and  _393
REMARK  160  A    between atoms: _392  and  _395
REMARK  161  A    between atoms: _395  and  _396
REMARK  162  A    between atoms: _399  and  _401
REMARK  163  A    between atoms: _401  and  _402
REMARK  164  A    between atoms: _401  and  _404
REMARK  165  A    between atoms: _404  and  _405
REMARK  166  A    between atoms: _405  and  _406
REMARK  167  A    between atoms: _409  and  _411
REMARK  168  A    between atoms: _411  and  _412
REMARK  169  A    between atoms: _411  and  _414
REMARK  170  A    between atoms: _414  and  _415
REMARK  171  A    between atoms: _425  and  _427
REMARK  172  A    between atoms: _427  and  _428
REMARK  173  A    between atoms: _427  and  _430
REMARK  174  A    between atoms: _430  and  _431
REMARK  175  A    between atoms: _431  and  _432
REMARK  176  A    between atoms: _437  and  _439
REMARK  177  A    between atoms: _439  and  _440
REMARK  178  A    between atoms: _439  and  _442
REMARK  179  A    between atoms: _444  and  _446
REMARK  180  A    between atoms: _446  and  _447
REMARK  181  A    between atoms: _449  and  _451
REMARK  182  A    between atoms: _451  and  _452
REMARK  183  A    between atoms: _451  and  _454
REMARK  184  A    between atoms: _454  and  _455
REMARK  185  A    between atoms: _458  and  _460
REMARK  186  A    between atoms: _460  and  _461
REMARK  187  A    between atoms: _460  and  _463
REMARK  188  A    between atoms: _466  and  _468
REMARK  189  A    between atoms: _468  and  _469
REMARK  190  A    between atoms: _468  and  _471
REMARK  191  A    between atoms: _471  and  _472
REMARK  192  A    between atoms: _472  and  _473
REMARK  193  A    between atoms: _478  and  _480
REMARK  194  A    between atoms: _480  and  _481
REMARK  195  A    between atoms: _480  and  _483
REMARK  196  A    between atoms: _483  and  _484
REMARK  197  A    between atoms: _487  and  _489
REMARK  198  A    between atoms: _489  and  _490
REMARK  199  A    between atoms: _489  and  _492
REMARK  200  A    between atoms: _492  and  _493
REMARK  201  A    between atoms: _496  and  _498
REMARK  202  A    between atoms: _498  and  _499
REMARK  203  A    between atoms: _498  and  _501
REMARK  204  A    between atoms: _501  and  _502
REMARK  205  A    between atoms: _502  and  _503
REMARK  206  A    between atoms: _505  and  _507
REMARK  207  A    between atoms: _507  and  _508
REMARK  208  A    between atoms: _507  and  _510
REMARK  209  A    between atoms: _510  and  _511
REMARK  210  A    between atoms: _514  and  _516
REMARK  211  A    between atoms: _516  and  _517
REMARK  212  A    between atoms: _516  and  _519
REMARK  213  A    between atoms: _519  and  _520
REMARK  214  A    between atoms: _521  and  ZN_632
REMARK  215  A    between atoms: _525  and  _527
REMARK  216  A    between atoms: _527  and  _528
REMARK  217  A    between atoms: _527  and  _530
REMARK  218  A    between atoms: _530  and  _531
REMARK  219  A    between atoms: _531  and  _532
REMARK  220  A    between atoms: _532  and  _533
REMARK  221  A    between atoms: _542  and  _544
REMARK  222  A    between atoms: _544  and  _545
REMARK  223  A    between atoms: _548  and  _550
REMARK  224  A    between atoms: _550  and  _551
REMARK  225  A    between atoms: _550  and  _553
REMARK  226  A    between atoms: _553  and  _554
REMARK  227  A    between atoms: _557  and  _559
REMARK  228  A    between atoms: _559  and  _560
REMARK  229  A    between atoms: _559  and  _562
REMARK  230  A    between atoms: _562  and  _563
REMARK  231  A    between atoms: _566  and  _568
REMARK  232  A    between atoms: _568  and  _569
REMARK  233  A    between atoms: _571  and  _573
REMARK  234  A    between atoms: _573  and  _574
REMARK  235  A    between atoms: _573  and  _576
REMARK  236  A    between atoms: _576  and  _577
REMARK  237  A    between atoms: _579  and  _581
REMARK  238  A    between atoms: _581  and  _582
REMARK  239  A    between atoms: _581  and  _584
REMARK  240  A    between atoms: _584  and  _585
REMARK  241  A    between atoms: _585  and  _586
REMARK  242  A    between atoms: _588  and  _590
REMARK  243  A    between atoms: _590  and  _591
REMARK  244  A    between atoms: _590  and  _593
REMARK  245  A    between atoms: _593  and  _594
REMARK  246  A    between atoms: _594  and  _595
REMARK  247  A    between atoms: _598  and  _600
REMARK  248  A    between atoms: _600  and  _601
REMARK  249  A    between atoms: _600  and  _603
REMARK  250  A    between atoms: _603  and  _604
REMARK  251  A    between atoms: _604  and  _605
REMARK  252  A    between atoms: _605  and  _606
REMARK  253  A    between atoms: _615  and  _617
REMARK  254  A    between atoms: _617  and  _618
REMARK  255  A    between atoms: _617  and  _620
REMARK  256  A    between atoms: _620  and  _621
REMARK  257  A    between atoms: _627  and  _629
REMARK  258  A    between atoms: _629  and  _630
REMARK                            x       y       z     vdW  Elec       q    Type
REMARK                         _______ _______ _______ _____ _____    ______ ____
ROOT
ATOM      1  N   UNK A   4      -8.541 -30.402  18.305  0.00  0.00    +0.000 N 
ATOM      2  C   UNK A   4      -7.317 -30.173  18.822  0.00  0.00    +0.000 A 
ATOM      3  C   UNK A   4      -7.351 -28.934  19.446  0.00  0.00    +0.000 A 
ATOM      4  N   UNK A   4      -8.616 -28.473  19.326  0.00  0.00    +0.000 NA
ATOM      5  C   UNK A   4      -9.338 -29.358  18.597  0.00  0.00    +0.000 A 
ENDROOT
BRANCH   1   6
ATOM      6 ZN   UNK A   4      -9.131 -32.034  17.073  0.00  0.00    +0.000 Zn
BRANCH   6   7
ATOM      7  N   UNK A   4      -7.159 -32.962  17.221  0.00  0.00    +0.000 N 
ATOM      8  C   UNK A   4      -6.529 -33.393  18.298  0.00  0.00    +0.000 A 
ATOM      9  C   UNK A   4      -5.171 -33.489  17.953  0.00  0.00    +0.000 A 
ATOM     10  N   UNK A   4      -5.044 -33.038  16.702  0.00  0.00    +0.000 NA
ATOM     11  C   UNK A   4      -6.262 -32.709  16.241  0.00  0.00    +0.000 A 
BRANCH   8  12
ATOM     12  C   UNK A   4      -7.279 -33.792  19.530  0.00  0.00    +0.000 C 
BRANCH  12  13
ATOM     13  C   UNK A   4      -6.756 -33.214  20.859  0.00  0.00    +0.000 C 
BRANCH  13  14
ATOM     14  C   UNK A   4      -7.456 -34.024  21.924  0.00  0.00    +0.000 C 
ATOM     15  N   UNK A   4      -8.507 -33.506  22.543  0.00  0.00    +0.000 N 
ATOM     16  H   UNK A   4      -8.764 -32.505  22.427  0.00  0.00    +0.000 HD
ATOM     17  O   UNK A   4      -7.075 -35.183  22.177  0.00  0.00    +0.000 OA
BRANCH  15  18
ATOM     18  C   UNK A   4      -9.287 -34.394  23.391  0.00  0.00    +0.000 C 
BRANCH  18  19
ATOM     19  C   UNK A   4     -10.724 -33.930  23.525  0.00  0.00    +0.000 C 
ATOM     20  N   PRO A   5     -11.638 -34.886  23.686  0.00  0.00    +0.000 N 
ATOM     21  H   PRO A   5     -11.363 -35.876  23.527  0.00  0.00    +0.000 HD
ATOM     22  O   UNK A   4     -10.986 -32.721  23.476  0.00  0.00    +0.000 OA
BRANCH  20  23
ATOM     23  CA  PRO A   5     -13.032 -34.587  24.084  0.00  0.00    +0.000 C 
ATOM     24  CB  PRO A   5     -14.015 -34.905  22.923  0.00  0.00    +0.000 C 
BRANCH  23  25
ATOM     25  C   PRO A   5     -13.263 -35.499  25.269  0.00  0.00    +0.000 C 
ATOM     26  N   ILE A   6     -13.990 -35.042  26.290  0.00  0.00    +0.000 N 
ATOM     27  H   ILE A   6     -14.441 -34.106  26.242  0.00  0.00    +0.000 HD
ATOM     28  O   PRO A   5     -12.757 -36.628  25.288  0.00  0.00    +0.000 OA
BRANCH  26  29
ATOM     29  CA  ILE A   6     -14.143 -35.892  27.493  0.00  0.00    +0.000 C 
BRANCH  29  30
ATOM     30  C   ILE A   6     -15.482 -36.604  27.387  0.00  0.00    +0.000 C 
ATOM     31  O   ILE A   6     -15.528 -37.833  27.447  0.00  0.00    +0.000 OA
ATOM     32  N   LEU A   7     -16.575 -35.840  27.222  0.00  0.00    +0.000 N 
ATOM     33  H   LEU A   7     -16.474 -34.805  27.231  0.00  0.00    +0.000 HD
BRANCH  32  34
ATOM     34  CA  LEU A   7     -17.903 -36.422  27.030  0.00  0.00    +0.000 C 
BRANCH  34  35
ATOM     35  C   LEU A   7     -18.000 -37.014  25.613  0.00  0.00    +0.000 C 
ATOM     36  O   LEU A   7     -18.636 -38.063  25.421  0.00  0.00    +0.000 OA
ATOM     37  N   GLY A   8     -17.327 -36.387  24.641  0.00  0.00    +0.000 N 
ATOM     38  H   GLY A   8     -16.777 -35.535  24.872  0.00  0.00    +0.000 HD
BRANCH  37  39
ATOM     39  CA  GLY A   8     -17.346 -36.872  23.260  0.00  0.00    +0.000 C 
BRANCH  39  40
ATOM     40  C   GLY A   8     -18.147 -35.890  22.453  0.00  0.00    +0.000 C 
ATOM     41  N   SER A   9     -19.446 -36.145  22.308  0.00  0.00    +0.000 N 
ATOM     42  H   SER A   9     -19.810 -37.111  22.437  0.00  0.00    +0.000 HD
ATOM     43  O   GLY A   8     -17.607 -34.873  21.969  0.00  0.00    +0.000 OA
BRANCH  41  44
ATOM     44  CA  SER A   9     -20.354 -35.054  21.966  0.00  0.00    +0.000 C 
BRANCH  44  45
ATOM     45  C   SER A   9     -21.438 -34.967  23.025  0.00  0.00    +0.000 C 
ATOM     46  O   SER A   9     -21.733 -35.958  23.713  0.00  0.00    +0.000 OA
ATOM     47  N   MET A  10     -22.037 -33.780  23.156  0.00  0.00    +0.000 N 
ATOM     48  H   MET A  10     -21.719 -32.981  22.572  0.00  0.00    +0.000 HD
BRANCH  47  49
ATOM     49  CA  MET A  10     -23.127 -33.584  24.101  0.00  0.00    +0.000 C 
BRANCH  49  50
ATOM     50  C   MET A  10     -24.287 -34.500  23.688  0.00  0.00    +0.000 C 
ATOM     51  O   MET A  10     -24.934 -35.080  24.546  0.00  0.00    +0.000 OA
ATOM     52  N   GLU A  11     -24.561 -34.577  22.381  0.00  0.00    +0.000 N 
ATOM     53  H   GLU A  11     -23.967 -34.057  21.704  0.00  0.00    +0.000 HD
BRANCH  52  54
ATOM     54  CA  GLU A  11     -25.679 -35.378  21.885  0.00  0.00    +0.000 C 
BRANCH  54  55
ATOM     55  C   GLU A  11     -25.475 -36.857  22.264  0.00  0.00    +0.000 C 
ATOM     56  O   GLU A  11     -26.358 -37.480  22.857  0.00  0.00    +0.000 OA
ATOM     57  N   ARG A  12     -24.307 -37.396  21.911  0.00  0.00    +0.000 N 
ATOM     58  H   ARG A  12     -23.586 -36.806  21.449  0.00  0.00    +0.000 HD
BRANCH  57  59
ATOM     59  CA  ARG A  12     -24.031 -38.812  22.169  0.00  0.00    +0.000 C 
BRANCH  59  60
ATOM     60  C   ARG A  12     -24.035 -39.097  23.668  0.00  0.00    +0.000 C 
ATOM     61  N   PHE A  13     -23.403 -38.197  24.438  0.00  0.00    +0.000 N 
ATOM     62  H   PHE A  13     -22.971 -37.354  24.009  0.00  0.00    +0.000 HD
ATOM     63  O   ARG A  12     -24.625 -40.098  24.122  0.00  0.00    +0.000 OA
BRANCH  61  64
ATOM     64  CA  PHE A  13     -23.325 -38.407  25.882  0.00  0.00    +0.000 C 
BRANCH  64  65
ATOM     65  C   PHE A  13     -24.713 -38.357  26.513  0.00  0.00    +0.000 C 
ATOM     66  O   PHE A  13     -25.024 -39.164  27.357  0.00  0.00    +0.000 OA
ENDBRANCH  64  65
BRANCH  64  67
ATOM     67  CB  PHE A  13     -22.328 -37.421  26.543  0.00  0.00    +0.000 C 
BRANCH  67  68
ATOM     68  CG  PHE A  13     -21.898 -37.839  27.906  0.00  0.00    +0.000 A 
ATOM     69  CD2 PHE A  13     -22.521 -37.340  29.040  0.00  0.00    +0.000 A 
ATOM     70  CE2 PHE A  13     -22.082 -37.731  30.314  0.00  0.00    +0.000 A 
ATOM     71  CZ  PHE A  13     -21.051 -38.663  30.443  0.00  0.00    +0.000 A 
ATOM     72  CE1 PHE A  13     -20.432 -39.160  29.313  0.00  0.00    +0.000 A 
ATOM     73  CD1 PHE A  13     -20.843 -38.739  28.059  0.00  0.00    +0.000 A 
ENDBRANCH  67  68
ENDBRANCH  64  67
ENDBRANCH  61  64
ENDBRANCH  59  60
BRANCH  59  74
ATOM     74  CB  ARG A  12     -22.711 -39.231  21.539  0.00  0.00    +0.000 C 
BRANCH  74  75
ATOM     75  CG  ARG A  12     -22.359 -40.722  21.794  0.00  0.00    +0.000 C 
BRANCH  75  76
ATOM     76  CD  ARG A  12     -21.112 -41.085  21.012  0.00  0.00    +0.000 C 
BRANCH  76  77
ATOM     77  NE  ARG A  12     -21.369 -41.090  19.571  0.00  0.00    +0.330 N 
ATOM     78  HE  ARG A  12     -22.347 -40.928  19.255  0.00  0.00    +0.000 HD
ATOM     79  CZ  ARG A  12     -20.440 -41.287  18.632  0.00  0.00    +0.000 C 
ATOM     80  NH2 ARG A  12     -19.155 -41.478  18.963  0.00  0.00    +0.330 N 
ATOM     81 HH21 ARG A  12     -18.870 -41.474  19.963  0.00  0.00    +0.000 HD
ATOM     82 HH22 ARG A  12     -18.444 -41.630  18.220  0.00  0.00    +0.000 HD
ATOM     83  NH1 ARG A  12     -20.773 -41.288  17.337  0.00  0.00    +0.330 N 
ATOM     84 HH11 ARG A  12     -21.762 -41.135  17.054  0.00  0.00    +0.000 HD
ATOM     85 HH12 ARG A  12     -20.043 -41.442  16.612  0.00  0.00    +0.000 HD
ENDBRANCH  76  77
ENDBRANCH  75  76
ENDBRANCH  74  75
ENDBRANCH  59  74
ENDBRANCH  57  59
ENDBRANCH  54  55
BRANCH  54  86
ATOM     86  CB  GLU A  11     -25.804 -35.234  20.370  0.00  0.00    +0.000 C 
BRANCH  86  87
ATOM     87  CG  GLU A  11     -26.366 -33.867  19.940  0.00  0.00    +0.000 C 
BRANCH  87  88
ATOM     88  CD  GLU A  11     -25.355 -32.711  20.008  0.00  0.00    +0.000 C 
ATOM     89  OE2 GLU A  11     -24.160 -32.865  20.254  0.00  0.00    +0.000 OA
ATOM     90  OE1 GLU A  11     -25.787 -31.589  19.731  0.00  0.00    +0.000 OA
ENDBRANCH  87  88
ENDBRANCH  86  87
ENDBRANCH  54  86
ENDBRANCH  52  54
ENDBRANCH  49  50
BRANCH  49  91
ATOM     91  CB  MET A  10     -23.608 -32.131  24.112  0.00  0.00    +0.000 C 
BRANCH  91  92
ATOM     92  CG  MET A  10     -22.470 -31.116  24.350  0.00  0.00    +0.000 C 
BRANCH  92  93
ATOM     93  SD  MET A  10     -21.630 -31.245  25.949  0.00  0.00    +0.000 S 
ATOM     94  CE  MET A  10     -22.830 -30.528  26.995  0.00  0.00    +0.000 C 
ENDBRANCH  92  93
ENDBRANCH  91  92
ENDBRANCH  49  91
ENDBRANCH  47  49
ENDBRANCH  44  45
BRANCH  44  95
ATOM     95  CB  SER A   9     -20.963 -35.201  20.586  0.00  0.00    +0.000 C 
BRANCH  95  96
ATOM     96  OG  SER A   9     -21.867 -36.320  20.586  0.00  0.00    +0.000 OA
ATOM     97  H   SER A   9     -22.267 -36.419  19.686  0.00  0.00    +0.000 HD
ENDBRANCH  95  96
ENDBRANCH  44  95
ENDBRANCH  41  44
ENDBRANCH  39  40
ENDBRANCH  37  39
ENDBRANCH  34  35
BRANCH  34  98
ATOM     98  CB  LEU A   7     -19.016 -35.379  27.237  0.00  0.00    +0.000 C 
BRANCH  98  99
ATOM     99  CG  LEU A   7     -18.997 -34.631  28.589  0.00  0.00    +0.000 C 
ATOM    100  CD2 LEU A   7     -18.829 -35.596  29.773  0.00  0.00    +0.000 C 
ATOM    101  CD1 LEU A   7     -20.332 -33.853  28.737  0.00  0.00    +0.000 C 
ENDBRANCH  98  99
ENDBRANCH  34  98
ENDBRANCH  32  34
ENDBRANCH  29  30
BRANCH  29 102
ATOM    102  CB  ILE A   6     -14.028 -35.091  28.804  0.00  0.00    +0.000 C 
ATOM    103  CG2 ILE A   6     -14.181 -35.998  30.053  0.00  0.00    +0.000 C 
BRANCH 102 104
ATOM    104  CG1 ILE A   6     -12.750 -34.206  28.810  0.00  0.00    +0.000 C 
ATOM    105  CD1 ILE A   6     -11.427 -34.958  28.774  0.00  0.00    +0.000 C 
ENDBRANCH 102 104
ENDBRANCH  29 102
ENDBRANCH  26  29
ENDBRANCH  23  25
ENDBRANCH  20  23
ENDBRANCH  18  19
BRANCH  18 106
ATOM    106  C   UNK A   4      -8.638 -34.608  24.786  0.00  0.00    +0.000 C 
BRANCH 106 107
ATOM    107  C   UNK A   4      -9.227 -33.828  25.964  0.00  0.00    +0.000 C 
BRANCH 107 108
ATOM    108  C   UNK A   4      -8.900 -32.352  25.885  0.00  0.00    +0.000 C 
BRANCH 108 109
ATOM    109  N   UNK A   4      -9.537 -31.623  27.007  0.00  0.00    +0.330 N 
ATOM    110  H   UNK A   4      -8.943 -31.408  27.834  0.00  0.00    +0.000 HD
ATOM    111  C   UNK A   4     -10.815 -31.217  27.046  0.00  0.00    +0.000 C 
ATOM    112  N   UNK A   4     -11.223 -30.549  28.137  0.00  0.00    +0.330 N 
ATOM    113  H   UNK A   4     -10.556 -30.363  28.913  0.00  0.00    +0.000 HD
ATOM    114  H   UNK A   4     -12.206 -30.217  28.206  0.00  0.00    +0.000 HD
ATOM    115  N   UNK A   4     -11.673 -31.430  26.034  0.00  0.00    +0.330 N 
ATOM    116  H   UNK A   4     -12.656 -31.098  26.107  0.00  0.00    +0.000 HD
ATOM    117  H   UNK A   4     -11.354 -31.927  25.178  0.00  0.00    +0.000 HD
ENDBRANCH 108 109
ENDBRANCH 107 108
ENDBRANCH 106 107
ENDBRANCH  18 106
ENDBRANCH  15  18
ENDBRANCH  13  14
BRANCH  13 118
ATOM    118  N   UNK A   4      -5.316 -33.444  21.019  0.00  0.00    +0.000 N 
ATOM    119  C   ILE A   2      -4.533 -32.558  21.628  0.00  0.00    +0.000 C 
ATOM    120  O   ILE A   2      -4.939 -31.447  21.995  0.00  0.00    +0.000 OA
ATOM    121  H   UNK A   4      -4.898 -34.321  20.647  0.00  0.00    +0.000 HD
BRANCH 119 122
ATOM    122  CA  ILE A   2      -3.071 -32.939  21.857  0.00  0.00    +0.000 C 
BRANCH 122 123
ATOM    123  N   ILE A   2      -2.242 -31.871  21.325  0.00  0.00    +0.000 N 
ATOM    124  H   ILE A   2      -2.112 -31.007  21.890  0.00  0.00    +0.000 HD
ATOM    125  C   MET A   1      -1.645 -31.960  20.142  0.00  0.00    +0.000 C 
ATOM    126  O   MET A   1      -1.577 -33.016  19.482  0.00  0.00    +0.000 OA
BRANCH 125 127
ATOM    127  CA  MET A   1      -0.985 -30.688  19.647  0.00  0.00    +0.000 C 
BRANCH 127 128
ATOM    128  N   MET A   1       0.404 -30.919  19.324  0.00  0.00    +0.000 NA
ATOM    129  H   MET A   1       0.661 -31.663  18.644  0.00  0.00    +0.000 HD
ENDBRANCH 127 128
BRANCH 127 130
ATOM    130  CB  MET A   1      -1.743 -30.070  18.448  0.00  0.00    +0.000 C 
BRANCH 130 131
ATOM    131  CG  MET A   1      -3.093 -29.437  18.810  0.00  0.00    +0.000 C 
BRANCH 131 132
ATOM    132  SD  MET A   1      -3.764 -28.386  17.460  0.00  0.00    +0.000 S 
ATOM    133  CE  MET A   1      -4.125 -29.631  16.208  0.00  0.00    +0.000 C 
ENDBRANCH 131 132
ENDBRANCH 130 131
ENDBRANCH 127 130
ENDBRANCH 125 127
ENDBRANCH 122 123
BRANCH 122 134
ATOM    134  CB  ILE A   2      -2.844 -33.116  23.367  0.00  0.00    +0.000 C 
ATOM    135  CG2 ILE A   2      -3.867 -34.121  23.925  0.00  0.00    +0.000 C 
BRANCH 134 136
ATOM    136  CG1 ILE A   2      -1.393 -33.598  23.618  0.00  0.00    +0.000 C 
ATOM    137  CD1 ILE A   2      -0.838 -33.353  25.029  0.00  0.00    +0.000 C 
ENDBRANCH 134 136
ENDBRANCH 122 134
ENDBRANCH 119 122
ENDBRANCH  13 118
ENDBRANCH  12  13
ENDBRANCH   8  12
ENDBRANCH   6   7
BRANCH   6 138
ATOM    138  S   UNK A   4      -9.128 -30.933  14.968  0.00  0.00    +0.000 S 
BRANCH 138 139
ATOM    139  C   UNK A   4      -8.053 -29.506  15.356  0.00  0.00    +0.000 C 
BRANCH 139 140
ATOM    140  C   UNK A   4      -8.797 -28.123  15.467  0.00  0.00    +0.000 C 
BRANCH 140 141
ATOM    141  C   UNK A   4      -8.187 -27.034  14.576  0.00  0.00    +0.000 C 
ATOM    142  O   UNK A   4      -7.423 -26.176  15.061  0.00  0.00    +0.000 OA
ATOM    143  N   PRO A   5      -8.517 -27.039  13.271  0.00  0.00    +0.000 N 
ATOM    144  CD  PRO A   5      -9.214 -28.052  12.454  0.00  0.00    +0.000 C 
ATOM    145  CG  PRO A   5      -8.606 -27.862  11.097  0.00  0.00    +0.000 C 
ATOM    146  CB  PRO A   5      -8.474 -26.359  11.039  0.00  0.00    +0.000 C 
ATOM    147  CA  PRO A   5      -7.936 -26.017  12.448  0.00  0.00    +0.000 C 
BRANCH 147 148
ATOM    148  C   PRO A   5      -8.294 -24.598  12.902  0.00  0.00    +0.000 C 
ATOM    149  O   PRO A   5      -7.425 -23.713  12.871  0.00  0.00    +0.000 OA
ENDBRANCH 147 148
ENDBRANCH 140 141
BRANCH 140 152
ATOM    150  C   UNK A   3     -11.112 -27.275  15.586  0.00  0.00    +0.000 C 
ATOM    151  O   UNK A   3     -10.765 -26.095  15.783  0.00  0.00    +0.000 OA
ATOM    152  N   UNK A   4     -10.265 -28.287  15.321  0.00  0.00    +0.000 N 
ATOM    153  H   UNK A   4     -10.647 -29.202  15.008  0.00  0.00    +0.000 HD
BRANCH 150 154
ATOM    154  C   UNK A   3     -12.560 -27.642  15.628  0.00  0.00    +0.000 C 
BRANCH 154 156
ATOM    155  C   ILE A   2     -13.304 -29.201  13.886  0.00  0.00    +0.000 C 
ATOM    156  N   UNK A   3     -12.887 -29.005  15.140  0.00  0.00    +0.000 N 
ATOM    157  H   UNK A   3     -12.790 -29.817  15.782  0.00  0.00    +0.000 HD
ATOM    158  O   ILE A   2     -13.324 -28.321  13.038  0.00  0.00    +0.000 OA
BRANCH 155 159
ATOM    159  CA  ILE A   2     -13.689 -30.627  13.527  0.00  0.00    +0.000 C 
BRANCH 159 162
ATOM    160  C   MET A   1     -15.476 -31.472  12.074  0.00  0.00    +0.000 C 
ATOM    161  O   MET A   1     -15.725 -32.424  12.798  0.00  0.00    +0.000 OA
ATOM    162  N   ILE A   2     -14.547 -30.570  12.358  0.00  0.00    +0.000 N 
ATOM    163  H   ILE A   2     -14.426 -29.772  11.702  0.00  0.00    +0.000 HD
BRANCH 160 165
ATOM    164  N   MET A   1     -16.040 -29.938  10.198  0.00  0.00    +0.000 NA
ATOM    165  CA  MET A   1     -16.261 -31.272  10.796  0.00  0.00    +0.000 C 
ATOM    166  CB  MET A   1     -15.702 -32.244   9.715  0.00  0.00    +0.000 C 
ATOM    167  CG  MET A   1     -14.586 -31.449   9.071  0.00  0.00    +0.000 C 
ATOM    168  CD  MET A   1     -15.058 -30.000   9.088  0.00  0.00    +0.000 C 
ENDBRANCH 160 165
ENDBRANCH 159 162
BRANCH 159 169
ATOM    169  CB  ILE A   2     -12.397 -31.362  13.195  0.00  0.00    +0.000 C 
BRANCH 169 170
ATOM    170  CG  ILE A   2     -12.544 -32.875  13.064  0.00  0.00    +0.000 C 
BRANCH 170 171
ATOM    171  SD  ILE A   2     -10.931 -33.617  12.696  0.00  0.00    +0.000 S 
ATOM    172  CE  ILE A   2     -11.505 -35.292  12.460  0.00  0.00    +0.000 C 
ENDBRANCH 170 171
ENDBRANCH 169 170
ENDBRANCH 159 169
ENDBRANCH 155 159
ENDBRANCH 154 156
BRANCH 154 173
ATOM    173  C   UNK A   3     -13.068 -27.508  17.047  0.00  0.00    +0.000 C 
BRANCH 173 174
ATOM    174  C   UNK A   3     -14.521 -27.880  17.139  0.00  0.00    +0.000 C 
ATOM    175  N   UNK A   3     -14.831 -28.968  17.874  0.00  0.00    +0.000 N 
ATOM    176  H   UNK A   3     -14.085 -29.475  18.392  0.00  0.00    +0.000 HD
ATOM    177  H   UNK A   3     -15.816 -29.300  17.922  0.00  0.00    +0.000 HD
ATOM    178  O   UNK A   3     -15.364 -27.229  16.496  0.00  0.00    +0.000 OA
ENDBRANCH 173 174
ENDBRANCH 154 173
ENDBRANCH 150 154
ENDBRANCH 140 152
ENDBRANCH 139 140
ENDBRANCH 138 139
ENDBRANCH   6 138
ENDBRANCH   1   6
BRANCH   3 179
ATOM    179  C   UNK A   4      -6.348 -28.256  20.312  0.00  0.00    +0.000 C 
BRANCH 179 180
ATOM    180  C   UNK A   4      -6.529 -28.680  21.778  0.00  0.00    +0.000 C 
BRANCH 180 181
ATOM    181  C   UNK A   4      -5.544 -28.047  22.710  0.00  0.00    +0.000 C 
ATOM    182  N   ILE A  18      -4.557 -28.846  23.098  0.00  0.00    +0.000 N 
ATOM    183  H   ILE A  18      -4.557 -29.837  22.783  0.00  0.00    +0.000 HD
ATOM    184  O   UNK A   4      -5.676 -26.873  23.068  0.00  0.00    +0.000 OA
BRANCH 182 185
ATOM    185  CA  ILE A  18      -3.482 -28.380  23.946  0.00  0.00    +0.000 C 
BRANCH 185 186
ATOM    186  CB  ILE A  18      -3.233 -29.338  25.135  0.00  0.00    +0.000 C 
ATOM    187  CG2 ILE A  18      -2.061 -28.832  25.984  0.00  0.00    +0.000 C 
BRANCH 186 188
ATOM    188  CG1 ILE A  18      -4.508 -29.478  25.991  0.00  0.00    +0.000 C 
ATOM    189  CD1 ILE A  18      -4.422 -30.646  26.987  0.00  0.00    +0.000 C 
ENDBRANCH 186 188
ENDBRANCH 185 186
BRANCH 185 190
ATOM    190  C   ILE A  18      -2.242 -28.284  23.098  0.00  0.00    +0.000 C 
ATOM    191  O   ILE A  18      -1.840 -29.263  22.427  0.00  0.00    +0.000 OA
ENDBRANCH 185 190
ENDBRANCH 182 185
ENDBRANCH 180 181
BRANCH 180 192
ATOM    192  N   UNK A   4      -7.885 -28.385  22.212  0.00  0.00    +0.000 N 
ATOM    193  C   ALA A  16      -8.754 -29.351  22.555  0.00  0.00    +0.000 C 
ATOM    194  O   ALA A  16      -8.625 -30.570  22.260  0.00  0.00    +0.000 OA
ATOM    195  H   UNK A   4      -8.193 -27.393  22.259  0.00  0.00    +0.000 HD
BRANCH 193 196
ATOM    196  CA  ALA A  16      -9.980 -28.859  23.302  0.00  0.00    +0.000 C 
ATOM    197  CB  ALA A  16      -9.694 -28.823  24.788  0.00  0.00    +0.000 C 
BRANCH 196 198
ATOM    198  N   ALA A  16     -11.110 -29.714  22.991  0.00  0.00    +0.000 N 
ATOM    199  C   ASP A  15     -12.380 -29.368  23.160  0.00  0.00    +0.000 C 
ATOM    200  O   ASP A  15     -12.756 -28.397  23.857  0.00  0.00    +0.000 OA
ATOM    201  H   ALA A  16     -10.912 -30.661  22.610  0.00  0.00    +0.000 HD
BRANCH 199 202
ATOM    202  CA  ASP A  15     -13.408 -30.284  22.485  0.00  0.00    +0.000 C 
BRANCH 202 203
ATOM    203  N   ASP A  15     -14.716 -30.122  23.102  0.00  0.00    +0.000 N 
ATOM    204  C   ASP A  14     -15.169 -30.887  24.097  0.00  0.00    +0.000 C 
ATOM    205  O   ASP A  14     -14.460 -31.701  24.722  0.00  0.00    +0.000 OA
ATOM    206  H   ASP A  15     -15.334 -29.365  22.746  0.00  0.00    +0.000 HD
BRANCH 204 207
ATOM    207  CA  ASP A  14     -16.653 -30.746  24.387  0.00  0.00    +0.000 C 
BRANCH 207 208
ATOM    208  N   ASP A  14     -17.355 -31.461  23.306  0.00  0.00    +0.000 N 
ATOM    209  H   ASP A  14     -17.636 -32.453  23.442  0.00  0.00    +0.000 HD
ATOM    210  C   PHE A  13     -17.632 -30.849  22.160  0.00  0.00    +0.000 C 
ATOM    211  O   PHE A  13     -17.530 -29.615  22.016  0.00  0.00    +0.000 OA
BRANCH 210 212
ATOM    212  CA  PHE A  13     -18.030 -31.731  20.986  0.00  0.00    +0.000 C 
BRANCH 212 213
ATOM    213  N   PHE A  13     -19.066 -31.074  20.170  0.00  0.00    +0.000 N 
ATOM    214  C   ARG A  12     -20.353 -31.161  20.492  0.00  0.00    +0.000 C 
ATOM    215  O   ARG A  12     -20.772 -31.845  21.447  0.00  0.00    +0.000 OA
ATOM    216  H   PHE A  13     -18.786 -30.533  19.327  0.00  0.00    +0.000 HD
BRANCH 214 217
ATOM    217  CA  ARG A  12     -21.334 -30.371  19.640  0.00  0.00    +0.000 C 
BRANCH 217 218
ATOM    218  N   ARG A  12     -22.219 -31.296  18.929  0.00  0.00    +0.000 N 
ATOM    219  H   ARG A  12     -22.845 -31.919  19.479  0.00  0.00    +0.000 HD
ATOM    220  C   GLU A  11     -22.246 -31.363  17.602  0.00  0.00    +0.000 C 
ATOM    221  O   GLU A  11     -21.483 -30.702  16.855  0.00  0.00    +0.000 OA
BRANCH 220 222
ATOM    222  CA  GLU A  11     -23.304 -32.267  17.027  0.00  0.00    +0.000 C 
BRANCH 222 223
ATOM    223  N   GLU A  11     -23.494 -31.937  15.637  0.00  0.00    +0.000 N 
ATOM    224  H   GLU A  11     -22.704 -31.552  15.081  0.00  0.00    +0.000 HD
ATOM    225  C   MET A  10     -24.686 -32.127  15.064  0.00  0.00    +0.000 C 
ATOM    226  O   MET A  10     -25.675 -32.506  15.696  0.00  0.00    +0.000 OA
BRANCH 225 227
ATOM    227  CA  MET A  10     -24.791 -31.848  13.574  0.00  0.00    +0.000 C 
BRANCH 227 228
ATOM    228  N   MET A  10     -25.266 -33.069  12.901  0.00  0.00    +0.000 N 
ATOM    229  H   MET A  10     -26.204 -33.448  13.143  0.00  0.00    +0.000 HD
ATOM    230  C   SER A   9     -24.519 -33.709  11.980  0.00  0.00    +0.000 C 
ATOM    231  O   SER A   9     -23.445 -33.280  11.565  0.00  0.00    +0.000 OA
BRANCH 230 232
ATOM    232  CA  SER A   9     -25.051 -35.038  11.437  0.00  0.00    +0.000 C 
BRANCH 232 233
ATOM    233  N   SER A   9     -25.932 -35.757  12.362  0.00  0.00    +0.000 N 
ATOM    234  C   GLY A   8     -25.472 -36.800  13.040  0.00  0.00    +0.000 C 
ATOM    235  O   GLY A   8     -24.368 -37.278  12.802  0.00  0.00    +0.000 OA
ATOM    236  H   SER A   9     -26.918 -35.449  12.487  0.00  0.00    +0.000 HD
BRANCH 234 237
ATOM    237  CA  GLY A   8     -26.369 -37.412  14.137  0.00  0.00    +0.000 C 
BRANCH 237 238
ATOM    238  N   GLY A   8     -25.621 -38.495  14.798  0.00  0.00    +0.000 N 
ATOM    239  H   GLY A   8     -24.782 -38.234  15.355  0.00  0.00    +0.000 HD
ATOM    240  C   LEU A   7     -25.944 -39.784  14.732  0.00  0.00    +0.000 C 
ATOM    241  O   LEU A   7     -26.933 -40.245  14.148  0.00  0.00    +0.000 OA
BRANCH 240 242
ATOM    242  CA  LEU A   7     -25.009 -40.703  15.518  0.00  0.00    +0.000 C 
BRANCH 242 243
ATOM    243  N   LEU A   7     -25.658 -41.021  16.790  0.00  0.00    +0.000 N 
ATOM    244  C   ILE A   6     -24.953 -41.024  17.929  0.00  0.00    +0.000 C 
ATOM    245  O   ILE A   6     -23.727 -40.880  17.978  0.00  0.00    +0.000 OA
ATOM    246  H   LEU A   7     -26.673 -41.246  16.810  0.00  0.00    +0.000 HD
BRANCH 244 247
ATOM    247  CA  ILE A   6     -25.731 -41.273  19.203  0.00  0.00    +0.000 C 
BRANCH 247 248
ATOM    248  N   ILE A   6     -27.067 -40.658  19.105  0.00  0.00    +0.000 N 
ATOM    249  C   PRO A   5     -27.246 -39.349  19.275  0.00  0.00    +0.000 C 
ATOM    250  O   PRO A   5     -26.297 -38.534  19.377  0.00  0.00    +0.000 OA
ATOM    251  H   ILE A   6     -27.889 -41.260  18.898  0.00  0.00    +0.000 HD
BRANCH 249 252
ATOM    252  CA  PRO A   5     -28.700 -38.832  19.390  0.00  0.00    +0.000 C 
BRANCH 252 253
ATOM    253  N   PRO A   5     -29.697 -39.816  18.990  0.00  0.00    +0.000 N 
ATOM    254  H   PRO A   5     -30.184 -40.355  19.734  0.00  0.00    +0.000 HD
ATOM    255  C   UNK A   4     -30.017 -40.061  17.716  0.00  0.00    +0.000 C 
ATOM    256  O   UNK A   4     -29.604 -39.380  16.756  0.00  0.00    +0.000 OA
BRANCH 255 257
ATOM    257  C   UNK A   4     -30.963 -41.231  17.495  0.00  0.00    +0.000 C 
BRANCH 257 258
ATOM    258  N   UNK A   4     -30.537 -42.059  16.372  0.00  0.00    +0.000 N 
ATOM    259  C   UNK A   3     -29.323 -42.583  16.310  0.00  0.00    +0.000 C 
ATOM    260  O   UNK A   3     -28.424 -42.310  17.109  0.00  0.00    +0.000 OA
ATOM    261  H   UNK A   4     -31.207 -42.243  15.598  0.00  0.00    +0.000 HD
BRANCH 259 262
ATOM    262  C   UNK A   3     -29.057 -43.535  15.171  0.00  0.00    +0.000 C 
BRANCH 262 263
ATOM    263  N   UNK A   3     -28.435 -42.827  14.066  0.00  0.00    +0.000 N 
ATOM    264  H   UNK A   3     -27.911 -41.949  14.254  0.00  0.00    +0.000 HD
ATOM    265  C   ILE A   2     -28.522 -43.277  12.823  0.00  0.00    +0.000 C 
ATOM    266  O   ILE A   2     -29.177 -44.277  12.505  0.00  0.00    +0.000 OA
BRANCH 265 267
ATOM    267  CA  ILE A   2     -27.796 -42.491  11.763  0.00  0.00    +0.000 C 
BRANCH 267 268
ATOM    268  N   ILE A   2     -27.278 -43.405  10.740  0.00  0.00    +0.000 N 
ATOM    269  C   MET A   1     -26.301 -44.271  11.018  0.00  0.00    +0.000 C 
ATOM    270  O   MET A   1     -25.827 -44.382  12.144  0.00  0.00    +0.000 OA
ATOM    271  H   ILE A   2     -27.679 -43.378   9.781  0.00  0.00    +0.000 HD
BRANCH 269 272
ATOM    272  CA  MET A   1     -25.750 -45.140   9.865  0.00  0.00    +0.000 C 
BRANCH 272 273
ATOM    273  N   MET A   1     -26.483 -44.940   8.625  0.00  0.00    +0.000 NA
ATOM    274  H   MET A   1     -26.246 -44.132   8.015  0.00  0.00    +0.000 HD
ENDBRANCH 272 273
BRANCH 272 275
ATOM    275  CB  MET A   1     -24.252 -44.854   9.663  0.00  0.00    +0.000 C 
BRANCH 275 276
ATOM    276  O   MET A   1     -23.999 -43.438   9.602  0.00  0.00    +0.000 OA
ATOM    277  H   MET A   1     -24.502 -43.046   8.844  0.00  0.00    +0.000 HD
ENDBRANCH 275 276
ENDBRANCH 272 275
ENDBRANCH 269 272
ENDBRANCH 267 268
BRANCH 267 278
ATOM    278  CB  ILE A   2     -28.716 -41.408  11.161  0.00  0.00    +0.000 C 
BRANCH 278 279
ATOM    279  CG  ILE A   2     -28.021 -40.513  10.107  0.00  0.00    +0.000 C 
ATOM    280  CD2 ILE A   2     -26.802 -39.802  10.686  0.00  0.00    +0.000 C 
ATOM    281  CD1 ILE A   2     -29.015 -39.482   9.586  0.00  0.00    +0.000 C 
ENDBRANCH 278 279
ENDBRANCH 267 278
ENDBRANCH 265 267
ENDBRANCH 262 263
BRANCH 262 282
ATOM    282  C   UNK A   3     -28.149 -44.666  15.670  0.00  0.00    +0.000 C 
BRANCH 282 283
ATOM    283  C   UNK A   3     -28.747 -45.427  16.821  0.00  0.00    +0.000 A 
ATOM    284  C   UNK A   3     -28.399 -45.470  18.161  0.00  0.00    +0.000 A 
ATOM    285  N   UNK A   3     -29.281 -46.266  18.792  0.00  0.00    +0.000 NA
ATOM    286  C   UNK A   3     -30.183 -46.714  17.895  0.00  0.00    +0.000 A 
ATOM    287  N   UNK A   3     -29.866 -46.187  16.691  0.00  0.00    +0.000 NA
ENDBRANCH 282 283
ENDBRANCH 262 282
ENDBRANCH 259 262
ENDBRANCH 257 258
ENDBRANCH 255 257
ENDBRANCH 252 253
BRANCH 252 288
ATOM    288  CB  PRO A   5     -28.940 -38.427  20.863  0.00  0.00    +0.000 C 
BRANCH 288 289
ATOM    289  CG  PRO A   5     -30.268 -37.744  21.176  0.00  0.00    +0.000 C 
ATOM    290  CD2 PRO A   5     -30.352 -37.496  22.696  0.00  0.00    +0.000 C 
ATOM    291  CD1 PRO A   5     -30.420 -36.446  20.378  0.00  0.00    +0.000 C 
ENDBRANCH 288 289
ENDBRANCH 252 288
ENDBRANCH 249 252
ENDBRANCH 247 248
BRANCH 247 292
ATOM    292  CB  ILE A   6     -25.793 -42.801  19.372  0.00  0.00    +0.000 C 
BRANCH 292 293
ATOM    293  CG  ILE A   6     -26.690 -43.340  20.460  0.00  0.00    +0.000 C 
BRANCH 293 294
ATOM    294  SD  ILE A   6     -26.043 -42.786  21.993  0.00  0.00    +0.000 S 
ATOM    295  CE  ILE A   6     -26.841 -44.122  22.915  0.00  0.00    +0.000 C 
ENDBRANCH 293 294
ENDBRANCH 292 293
ENDBRANCH 247 292
ENDBRANCH 244 247
ENDBRANCH 242 243
BRANCH 242 296
ATOM    296  CB  LEU A   7     -24.606 -41.932  14.694  0.00  0.00    +0.000 C 
BRANCH 296 297
ATOM    297  CG  LEU A   7     -23.730 -41.519  13.505  0.00  0.00    +0.000 C 
BRANCH 297 298
ATOM    298  CD  LEU A   7     -22.957 -42.642  12.876  0.00  0.00    +0.000 C 
BRANCH 298 299
ATOM    299  NE  LEU A   7     -22.032 -43.305  13.798  0.00  0.00    +0.330 N 
ATOM    300  CZ  LEU A   7     -22.201 -44.567  14.201  0.00  0.00    +0.000 C 
ATOM    301  NH2 LEU A   7     -21.330 -45.126  15.017  0.00  0.00    +0.330 N 
ATOM    302 HH21 LEU A   7     -20.507 -44.584  15.350  0.00  0.00    +0.000 HD
ATOM    303 HH22 LEU A   7     -21.466 -46.109  15.328  0.00  0.00    +0.000 HD
ATOM    304  NH1 LEU A   7     -23.240 -45.270  13.805  0.00  0.00    +0.330 N 
ATOM    305 HH11 LEU A   7     -23.357 -46.252  14.128  0.00  0.00    +0.000 HD
ATOM    306 HH12 LEU A   7     -23.944 -44.844  13.169  0.00  0.00    +0.000 HD
ATOM    307  HE  LEU A   7     -21.212 -42.773  14.152  0.00  0.00    +0.000 HD
ENDBRANCH 298 299
ENDBRANCH 297 298
ENDBRANCH 296 297
ENDBRANCH 242 296
ENDBRANCH 240 242
ENDBRANCH 237 238
BRANCH 237 308
ATOM    308  CB  GLY A   8     -26.836 -36.312  15.149  0.00  0.00    +0.000 C 
ATOM    309  CG2 GLY A   8     -27.913 -36.852  16.100  0.00  0.00    +0.000 C 
ATOM    310  CG1 GLY A   8     -25.651 -35.748  15.943  0.00  0.00    +0.000 C 
ENDBRANCH 237 308
ENDBRANCH 234 237
ENDBRANCH 232 233
BRANCH 232 311
ATOM    311  CB  SER A   9     -25.752 -34.783  10.113  0.00  0.00    +0.000 C 
BRANCH 311 312
ATOM    312  CG  SER A   9     -25.881 -36.061   9.329  0.00  0.00    +0.000 C 
BRANCH 312 313
ATOM    313  CD  SER A   9     -26.572 -35.814   8.019  0.00  0.00    +0.000 C 
BRANCH 313 314
ATOM    314  NE  SER A   9     -26.554 -37.047   7.250  0.00  0.00    +0.330 N 
ATOM    315  HE  SER A   9     -26.041 -37.866   7.634  0.00  0.00    +0.000 HD
ATOM    316  CZ  SER A   9     -27.166 -37.172   6.075  0.00  0.00    +0.000 C 
ATOM    317  NH2 SER A   9     -27.824 -36.119   5.543  0.00  0.00    +0.330 N 
ATOM    318 HH21 SER A   9     -27.852 -35.212   6.052  0.00  0.00    +0.000 HD
ATOM    319 HH22 SER A   9     -28.303 -36.215   4.625  0.00  0.00    +0.000 HD
ATOM    320  NH1 SER A   9     -27.077 -38.326   5.401  0.00  0.00    +0.330 N 
ATOM    321 HH11 SER A   9     -26.532 -39.118   5.796  0.00  0.00    +0.000 HD
ATOM    322 HH12 SER A   9     -27.553 -38.430   4.482  0.00  0.00    +0.000 HD
ENDBRANCH 313 314
ENDBRANCH 312 313
ENDBRANCH 311 312
ENDBRANCH 232 311
ENDBRANCH 230 232
ENDBRANCH 227 228
ENDBRANCH 225 227
ENDBRANCH 222 223
BRANCH 222 323
ATOM    323  CB  GLU A  11     -22.869 -33.746  17.194  0.00  0.00    +0.000 C 
BRANCH 323 324
ATOM    324  CG  GLU A  11     -21.642 -34.072  16.388  0.00  0.00    +0.000 A 
ATOM    325  CD2 GLU A  11     -20.355 -33.896  16.949  0.00  0.00    +0.000 A 
ATOM    326  CE2 GLU A  11     -19.226 -34.174  16.201  0.00  0.00    +0.000 A 
ATOM    327  CZ  GLU A  11     -19.336 -34.649  14.881  0.00  0.00    +0.000 A 
ATOM    328  CE1 GLU A  11     -20.600 -34.789  14.288  0.00  0.00    +0.000 A 
ATOM    329  CD1 GLU A  11     -21.760 -34.519  15.058  0.00  0.00    +0.000 A 
ENDBRANCH 323 324
ENDBRANCH 222 323
ENDBRANCH 220 222
ENDBRANCH 217 218
BRANCH 217 330
ATOM    330  CB  ARG A  12     -22.136 -29.378  20.517  0.00  0.00    +0.000 C 
ATOM    331  CG2 ARG A  12     -21.226 -28.469  21.324  0.00  0.00    +0.000 C 
BRANCH 330 332
ATOM    332  OG1 ARG A  12     -22.903 -28.544  19.656  0.00  0.00    +0.000 OA
ATOM    333  HG1 ARG A  12     -23.521 -29.103  19.122  0.00  0.00    +0.000 HD
ENDBRANCH 330 332
ENDBRANCH 217 330
ENDBRANCH 214 217
ENDBRANCH 212 213
BRANCH 212 334
ATOM    334  CB  PHE A  13     -16.772 -31.960  20.134  0.00  0.00    +0.000 C 
BRANCH 334 335
ATOM    335  CG  PHE A  13     -17.008 -32.770  18.864  0.00  0.00    +0.000 C 
BRANCH 335 336
ATOM    336  CD  PHE A  13     -15.754 -32.914  18.019  0.00  0.00    +0.000 C 
ATOM    337  OE1 PHE A  13     -14.975 -31.971  17.871  0.00  0.00    +0.000 OA
ATOM    338  NE2 PHE A  13     -15.558 -34.088  17.444  0.00  0.00    +0.000 N 
ATOM    339 HE21 PHE A  13     -16.239 -34.860  17.593  0.00  0.00    +0.000 HD
ATOM    340 HE22 PHE A  13     -14.723 -34.240  16.843  0.00  0.00    +0.000 HD
ENDBRANCH 335 336
ENDBRANCH 334 335
ENDBRANCH 212 334
ENDBRANCH 210 212
ENDBRANCH 207 208
BRANCH 207 341
ATOM    341  CB  ASP A  14     -17.062 -31.308  25.756  0.00  0.00    +0.000 C 
BRANCH 341 342
ATOM    342  CG  ASP A  14     -16.617 -32.780  25.960  0.00  0.00    +0.000 C 
ATOM    343  OD2 ASP A  14     -15.996 -33.095  27.004  0.00  0.00    +0.000 OA
ATOM    344  OD1 ASP A  14     -16.872 -33.607  25.063  0.00  0.00    +0.000 OA
ENDBRANCH 341 342
ENDBRANCH 207 341
ENDBRANCH 204 207
ENDBRANCH 202 203
BRANCH 202 345
ATOM    345  CB  ASP A  15     -13.564 -29.908  21.003  0.00  0.00    +0.000 C 
BRANCH 345 346
ATOM    346  CG  ASP A  15     -12.446 -30.448  20.106  0.00  0.00    +0.000 C 
ATOM    347  OD2 ASP A  15     -11.611 -31.278  20.536  0.00  0.00    +0.000 OA
ATOM    348  OD1 ASP A  15     -12.454 -29.996  18.953  0.00  0.00    +0.000 OA
ENDBRANCH 345 346
ENDBRANCH 202 345
ENDBRANCH 199 202
ENDBRANCH 196 198
ENDBRANCH 193 196
ENDBRANCH 180 192
ENDBRANCH 179 180
ENDBRANCH   3 179
TORSDOF 144
REMARK  Name = ../refined-set-2016/4hwo/4hwo_pocket.pdb
REMARK  258 active torsions:
REMARK  status: ('A' for Active; 'I' for Inactive)
REMARK    1  A    between atoms: _1  and  _3
REMARK    2  A    between atoms: _3  and  _4
REMARK    3  A    between atoms: _6  and  _8
REMARK    4  A    between atoms: _8  and  _9
REMARK    5  A    between atoms: _8  and  _11
REMARK    6  A    between atoms: _14  and  _16
REMARK    7  A    between atoms: _16  and  _17
REMARK    8  A    between atoms: _16  and  _19
REMARK    9  A    between atoms: _19  and  _20
REMARK   10  A    between atoms: _25  and  _27
REMARK   11  A    between atoms: _27  and  _28
REMARK   12  A    between atoms: _27  and  _30
REMARK   13  A    between atoms: _30  and  _31
REMARK   14  A    between atoms: _36  and  _37
REMARK   15  A    between atoms: _40  and  _41
REMARK   16  A    between atoms: _46  and  _48
REMARK   17  A    between atoms: _48  and  _49
REMARK   18  A    between atoms: _48  and  _51
REMARK   19  A    between atoms: _51  and  _52
REMARK   20  A    between atoms: _52  and  _53
REMARK   21  A    between atoms: _55  and  _57
REMARK   22  A    between atoms: _57  and  _58
REMARK   23  A    between atoms: _57  and  _60
REMARK   24  A    between atoms: _60  and  _61
REMARK   25  A    between atoms: _66  and  _68
REMARK   26  A    between atoms: _68  and  _69
REMARK   27  A    between atoms: _68  and  _71
REMARK   28  A    between atoms: _71  and  _72
REMARK   29  A    between atoms: _72  and  ZN_632
REMARK   30  A    between atoms: _74  and  _75
REMARK   31  A    between atoms: _80  and  _82
REMARK   32  A    between atoms: _82  and  _83
REMARK   33  A    between atoms: _82  and  _85
REMARK   34  A    between atoms: _85  and  _86
REMARK   35  A    between atoms: _91  and  _93
REMARK   36  A    between atoms: _93  and  _94
REMARK   37  A    between atoms: _93  and  _96
REMARK   38  A    between atoms: _98  and  _100
REMARK   39  A    between atoms: _100  and  _101
REMARK   40  A    between atoms: _100  and  _103
REMARK   41  A    between atoms: _103  and  _104
REMARK   42  A    between atoms: _109  and  _111
REMARK   43  A    between atoms: _111  and  _112
REMARK   44  A    between atoms: _111  and  _114
REMARK   45  A    between atoms: _114  and  _115
REMARK   46  A    between atoms: _115  and  _116
REMARK   47  A    between atoms: _116  and  _117
REMARK   48  A    between atoms: _126  and  _128
REMARK   49  A    between atoms: _128  and  _129
REMARK   50  A    between atoms: _128  and  _131
REMARK   51  A    between atoms: _131  and  _132
REMARK   52  A    between atoms: _137  and  _139
REMARK   53  A    between atoms: _139  and  _140
REMARK   54  A    between atoms: _139  and  _142
REMARK   55  A    between atoms: _142  and  _143
REMARK   56  A    between atoms: _143  and  _144
REMARK   57  A    between atoms: _147  and  _149
REMARK   58  A    between atoms: _149  and  _150
REMARK   59  A    between atoms: _149  and  _152
REMARK   60  A    between atoms: _152  and  _153
REMARK   61  A    between atoms: _155  and  _157
REMARK   62  A    between atoms: _157  and  _158
REMARK   63  A    between atoms: _157  and  _160
REMARK   64  A    between atoms: _160  and  _161
REMARK   65  A    between atoms: _164  and  _166
REMARK   66  A    between atoms: _166  and  _167
REMARK   67  A    between atoms: _166  and  _169
REMARK   68  A    between atoms: _169  and  _170
REMARK   69  A    between atoms: _175  and  _177
REMARK   70  A    between atoms: _177  and  _178
REMARK   71  A    between atoms: _180  and  _182
REMARK   72  A    between atoms: _182  and  _183
REMARK   73  A    between atoms: _182  and  _185
REMARK   74  A    between atoms: _185  and  _186
REMARK   75  A    between atoms: _189  and  _191
REMARK   76  A    between atoms: _191  and  _192
REMARK   77  A    between atoms: _191  and  _194
REMARK   78  A    between atoms: _194  and  _195
REMARK   79  A    between atoms: _195  and  _196
REMARK   80  A    between atoms: _198  and  _200
REMARK   81  A    between atoms: _200  and  _201
REMARK   82  A    between atoms: _200  and  _203
REMARK   83  A    between atoms: _203  and  _204
REMARK   84  A    between atoms: _204  and  _205
REMARK   85  A    between atoms: _205  and  _206
REMARK   86  A    between atoms: _215  and  _217
REMARK   87  A    between atoms: _217  and  _218
REMARK   88  A    between atoms: _217  and  _220
REMARK   89  A    between atoms: _223  and  _225
REMARK   90  A    between atoms: _225  and  _226
REMARK   91  A    between atoms: _225  and  _228
REMARK   92  A    between atoms: _228  and  _229
REMARK   93  A    between atoms: _229  and  _230
REMARK   94  A    between atoms: _230  and  _231
REMARK   95  A    between atoms: _240  and  _242
REMARK   96  A    between atoms: _242  and  _243
REMARK   97  A    between atoms: _245  and  _247
REMARK   98  A    between atoms: _247  and  _248
REMARK   99  A    between atoms: _247  and  _250
REMARK  100  A    between atoms: _250  and  _251
REMARK  101  A    between atoms: _257  and  _259
REMARK  102  A    between atoms: _259  and  _260
REMARK  103  A    between atoms: _259  and  _262
REMARK  104  A    between atoms: _262  and  _263
REMARK  105  A    between atoms: _266  and  _268
REMARK  106  A    between atoms: _268  and  _269
REMARK  107  A    between atoms: _268  and  _271
REMARK  108  A    between atoms: _271  and  _272
REMARK  109  A    between atoms: _272  and  _273
REMARK  110  A    between atoms: _278  and  _280
REMARK  111  A    between atoms: _280  and  _281
REMARK  112  A    between atoms: _280  and  _283
REMARK  113  A    between atoms: _283  and  _284
REMARK  114  A    between atoms: _287  and  _289
REMARK  115  A    between atoms: _289  and  _290
REMARK  116  A    between atoms: _289  and  _292
REMARK  117  A    between atoms: _292  and  _293
REMARK  118  A    between atoms: _296  and  _298
REMARK  119  A    between atoms: _298  and  _299
REMARK  120  A    between atoms: _302  and  _304
REMARK  121  A    between atoms: _304  and  _305
REMARK  122  A    between atoms: _304  and  _307
REMARK  123  A    between atoms: _307  and  _308
REMARK  124  A    between atoms: _312  and  ZN_632
REMARK  125  A    between atoms: _313  and  _315
REMARK  126  A    between atoms: _315  and  _316
REMARK  127  A    between atoms: _315  and  _318
REMARK  128  A    between atoms: _318  and  _319
REMARK  129  A    between atoms: _322  and  _324
REMARK  130  A    between atoms: _324  and  _325
REMARK  131  A    between atoms: _324  and  _327
REMARK  132  A    between atoms: _327  and  _328
REMARK  133  A    between atoms: _330  and  _332
REMARK  134  A    between atoms: _332  and  _333
REMARK  135  A    between atoms: _332  and  _335
REMARK  136  A    between atoms: _335  and  _336
REMARK  137  A    between atoms: _336  and  _337
REMARK  138  A    between atoms: _340  and  _342
REMARK  139  A    between atoms: _342  and  _343
REMARK  140  A    between atoms: _345  and  _347
REMARK  141  A    between atoms: _347  and  _348
REMARK  142  A    between atoms: _351  and  _353
REMARK  143  A    between atoms: _353  and  _354
REMARK  144  A    between atoms: _353  and  _356
REMARK  145  A    between atoms: _356  and  _357
REMARK  146  A    between atoms: _363  and  _365
REMARK  147  A    between atoms: _365  and  _366
REMARK  148  A    between atoms: _365  and  _368
REMARK  149  A    between atoms: _368  and  _369
REMARK  150  A    between atoms: _374  and  _375
REMARK  151  A    between atoms: _377  and  _379
REMARK  152  A    between atoms: _379  and  _380
REMARK  153  A    between atoms: _379  and  _382
REMARK  154  A    between atoms: _382  and  _383
REMARK  155  A    between atoms: _383  and  _384
REMARK  156  A    between atoms: _384  and  _385
REMARK  157  A    between atoms: _385  and  _386
REMARK  158  A    between atoms: _390  and  _392
REMARK  159  A    between atoms: _392  and  _393
REMARK  160  A    between atoms: _392  and  _395
REMARK  161  A    between atoms: _395  and  _396
REMARK  162  A    between atoms: _399  and  _401
REMARK  163  A    between atoms: _401  and  _402
REMARK  164  A    between atoms: _401  and  _404
REMARK  165  A    between atoms: _404  and  _405
REMARK  166  A    between atoms: _405  and  _406
REMARK  167  A    between atoms: _409  and  _411
REMARK  168  A    between atoms: _411  and  _412
REMARK  169  A    between atoms: _411  and  _414
REMARK  170  A    between atoms: _414  and  _415
REMARK  171  A    between atoms: _425  and  _427
REMARK  172  A    between atoms: _427  and  _428
REMARK  173  A    between atoms: _427  and  _430
REMARK  174  A    between atoms: _430  and  _431
REMARK  175  A    between atoms: _431  and  _432
REMARK  176  A    between atoms: _437  and  _439
REMARK  177  A    between atoms: _439  and  _440
REMARK  178  A    between atoms: _439  and  _442
REMARK  179  A    between atoms: _444  and  _446
REMARK  180  A    between atoms: _446  and  _447
REMARK  181  A    between atoms: _449  and  _451
REMARK  182  A    between atoms: _451  and  _452
REMARK  183  A    between atoms: _451  and  _454
REMARK  184  A    between atoms: _454  and  _455
REMARK  185  A    between atoms: _458  and  _460
REMARK  186  A    between atoms: _460  and  _461
REMARK  187  A    between atoms: _460  and  _463
REMARK  188  A    between atoms: _466  and  _468
REMARK  189  A    between atoms: _468  and  _469
REMARK  190  A    between atoms: _468  and  _471
REMARK  191  A    between atoms: _471  and  _472
REMARK  192  A    between atoms: _472  and  _473
REMARK  193  A    between atoms: _478  and  _480
REMARK  194  A    between atoms: _480  and  _481
REMARK  195  A    between atoms: _480  and  _483
REMARK  196  A    between atoms: _483  and  _484
REMARK  197  A    between atoms: _487  and  _489
REMARK  198  A    between atoms: _489  and  _490
REMARK  199  A    between atoms: _489  and  _492
REMARK  200  A    between atoms: _492  and  _493
REMARK  201  A    between atoms: _496  and  _498
REMARK  202  A    between atoms: _498  and  _499
REMARK  203  A    between atoms: _498  and  _501
REMARK  204  A    between atoms: _501  and  _502
REMARK  205  A    between atoms: _502  and  _503
REMARK  206  A    between atoms: _505  and  _507
REMARK  207  A    between atoms: _507  and  _508
REMARK  208  A    between atoms: _507  and  _510
REMARK  209  A    between atoms: _510  and  _511
REMARK  210  A    between atoms: _514  and  _516
REMARK  211  A    between atoms: _516  and  _517
REMARK  212  A    between atoms: _516  and  _519
REMARK  213  A    between atoms: _519  and  _520
REMARK  214  A    between atoms: _521  and  ZN_632
REMARK  215  A    between atoms: _525  and  _527
REMARK  216  A    between atoms: _527  and  _528
REMARK  217  A    between atoms: _527  and  _530
REMARK  218  A    between atoms: _530  and  _531
REMARK  219  A    between atoms: _531  and  _532
REMARK  220  A    between atoms: _532  and  _533
REMARK  221  A    between atoms: _542  and  _544
REMARK  222  A    between atoms: _544  and  _545
REMARK  223  A    between atoms: _548  and  _550
REMARK  224  A    between atoms: _550  and  _551
REMARK  225  A    between atoms: _550  and  _553
REMARK  226  A    between atoms: _553  and  _554
REMARK  227  A    between atoms: _557  and  _559
REMARK  228  A    between atoms: _559  and  _560
REMARK  229  A    between atoms: _559  and  _562
REMARK  230  A    between atoms: _562  and  _563
REMARK  231  A    between atoms: _566  and  _568
REMARK  232  A    between atoms: _568  and  _569
REMARK  233  A    between atoms: _571  and  _573
REMARK  234  A    between atoms: _573  and  _574
REMARK  235  A    between atoms: _573  and  _576
REMARK  236  A    between atoms: _576  and  _577
REMARK  237  A    between atoms: _579  and  _581
REMARK  238  A    between atoms: _581  and  _582
REMARK  239  A    between atoms: _581  and  _584
REMARK  240  A    between atoms: _584  and  _585
REMARK  241  A    between atoms: _585  and  _586
REMARK  242  A    between atoms: _588  and  _590
REMARK  243  A    between atoms: _590  and  _591
REMARK  244  A    between atoms: _590  and  _593
REMARK  245  A    between atoms: _593  and  _594
REMARK  246  A    between atoms: _594  and  _595
REMARK  247  A    between atoms: _598  and  _600
REMARK  248  A    between atoms: _600  and  _601
REMARK  249  A    between atoms: _600  and  _603
REMARK  250  A    between atoms: _603  and  _604
REMARK  251  A    between atoms: _604  and  _605
REMARK  252  A    between atoms: _605  and  _606
REMARK  253  A    between atoms: _615  and  _617
REMARK  254  A    between atoms: _617  and  _618
REMARK  255  A    between atoms: _617  and  _620
REMARK  256  A    between atoms: _620  and  _621
REMARK  257  A    between atoms: _627  and  _629
REMARK  258  A    between atoms: _629  and  _630
REMARK                            x       y       z     vdW  Elec       q    Type
REMARK                         _______ _______ _______ _____ _____    ______ ____
ROOT
ATOM      1  CB  HIS A   1      -7.930 -24.667  18.052  0.00  0.00    +0.072 C 
ENDROOT
BRANCH   1   2
ATOM      2  CG  HIS A   1      -9.260 -24.839  18.739  0.00  0.00    +0.082 A 
ATOM      3  ND1 HIS A   1      -9.522 -25.810  19.669  0.00  0.00    -0.227 NA
ATOM      4  CE1 HIS A   1     -10.822 -25.690  20.069  0.00  0.00    +0.199 A 
ATOM      5  NE2 HIS A   1     -11.384 -24.655  19.403  0.00  0.00    -0.221 NA
ATOM      6  CD2 HIS A   1     -10.456 -24.101  18.585  0.00  0.00    +0.115 A 
ENDBRANCH   1   2
BRANCH   1   7
ATOM      7  CA  HIS A   1      -7.913 -23.453  17.135  0.00  0.00    +0.139 C 
BRANCH   7   8
ATOM      8  N   HIS A   1      -8.781 -23.671  15.954  0.00  0.00    -0.239 NA
ATOM      9  H   HIS A   1      -9.199 -24.610  15.797  0.00  0.00    +0.142 HD
ENDBRANCH   7   8
BRANCH   7  10
ATOM     10  C   HIS A   1      -6.544 -23.068  16.742  0.00  0.00    +0.224 C 
ATOM     11  O   HIS A   1      -5.954 -22.169  17.352  0.00  0.00    -0.287 OA
ENDBRANCH   7  10
ENDBRANCH   1   7
TORSDOF 4
REMARK  Name = ../refined-set-2016/4hwo/4hwo_pocket.pdb
REMARK  258 active torsions:
REMARK  status: ('A' for Active; 'I' for Inactive)
REMARK    1  A    between atoms: _1  and  _3
REMARK    2  A    between atoms: _3  and  _4
REMARK    3  A    between atoms: _6  and  _8
REMARK    4  A    between atoms: _8  and  _9
REMARK    5  A    between atoms: _8  and  _11
REMARK    6  A    between atoms: _14  and  _16
REMARK    7  A    between atoms: _16  and  _17
REMARK    8  A    between atoms: _16  and  _19
REMARK    9  A    between atoms: _19  and  _20
REMARK   10  A    between atoms: _25  and  _27
REMARK   11  A    between atoms: _27  and  _28
REMARK   12  A    between atoms: _27  and  _30
REMARK   13  A    between atoms: _30  and  _31
REMARK   14  A    between atoms: _36  and  _37
REMARK   15  A    between atoms: _40  and  _41
REMARK   16  A    between atoms: _46  and  _48
REMARK   17  A    between atoms: _48  and  _49
REMARK   18  A    between atoms: _48  and  _51
REMARK   19  A    between atoms: _51  and  _52
REMARK   20  A    between atoms: _52  and  _53
REMARK   21  A    between atoms: _55  and  _57
REMARK   22  A    between atoms: _57  and  _58
REMARK   23  A    between atoms: _57  and  _60
REMARK   24  A    between atoms: _60  and  _61
REMARK   25  A    between atoms: _66  and  _68
REMARK   26  A    between atoms: _68  and  _69
REMARK   27  A    between atoms: _68  and  _71
REMARK   28  A    between atoms: _71  and  _72
REMARK   29  A    between atoms: _72  and  ZN_632
REMARK   30  A    between atoms: _74  and  _75
REMARK   31  A    between atoms: _80  and  _82
REMARK   32  A    between atoms: _82  and  _83
REMARK   33  A    between atoms: _82  and  _85
REMARK   34  A    between atoms: _85  and  _86
REMARK   35  A    between atoms: _91  and  _93
REMARK   36  A    between atoms: _93  and  _94
REMARK   37  A    between atoms: _93  and  _96
REMARK   38  A    between atoms: _98  and  _100
REMARK   39  A    between atoms: _100  and  _101
REMARK   40  A    between atoms: _100  and  _103
REMARK   41  A    between atoms: _103  and  _104
REMARK   42  A    between atoms: _109  and  _111
REMARK   43  A    between atoms: _111  and  _112
REMARK   44  A    between atoms: _111  and  _114
REMARK   45  A    between atoms: _114  and  _115
REMARK   46  A    between atoms: _115  and  _116
REMARK   47  A    between atoms: _116  and  _117
REMARK   48  A    between atoms: _126  and  _128
REMARK   49  A    between atoms: _128  and  _129
REMARK   50  A    between atoms: _128  and  _131
REMARK   51  A    between atoms: _131  and  _132
REMARK   52  A    between atoms: _137  and  _139
REMARK   53  A    between atoms: _139  and  _140
REMARK   54  A    between atoms: _139  and  _142
REMARK   55  A    between atoms: _142  and  _143
REMARK   56  A    between atoms: _143  and  _144
REMARK   57  A    between atoms: _147  and  _149
REMARK   58  A    between atoms: _149  and  _150
REMARK   59  A    between atoms: _149  and  _152
REMARK   60  A    between atoms: _152  and  _153
REMARK   61  A    between atoms: _155  and  _157
REMARK   62  A    between atoms: _157  and  _158
REMARK   63  A    between atoms: _157  and  _160
REMARK   64  A    between atoms: _160  and  _161
REMARK   65  A    between atoms: _164  and  _166
REMARK   66  A    between atoms: _166  and  _167
REMARK   67  A    between atoms: _166  and  _169
REMARK   68  A    between atoms: _169  and  _170
REMARK   69  A    between atoms: _175  and  _177
REMARK   70  A    between atoms: _177  and  _178
REMARK   71  A    between atoms: _180  and  _182
REMARK   72  A    between atoms: _182  and  _183
REMARK   73  A    between atoms: _182  and  _185
REMARK   74  A    between atoms: _185  and  _186
REMARK   75  A    between atoms: _189  and  _191
REMARK   76  A    between atoms: _191  and  _192
REMARK   77  A    between atoms: _191  and  _194
REMARK   78  A    between atoms: _194  and  _195
REMARK   79  A    between atoms: _195  and  _196
REMARK   80  A    between atoms: _198  and  _200
REMARK   81  A    between atoms: _200  and  _201
REMARK   82  A    between atoms: _200  and  _203
REMARK   83  A    between atoms: _203  and  _204
REMARK   84  A    between atoms: _204  and  _205
REMARK   85  A    between atoms: _205  and  _206
REMARK   86  A    between atoms: _215  and  _217
REMARK   87  A    between atoms: _217  and  _218
REMARK   88  A    between atoms: _217  and  _220
REMARK   89  A    between atoms: _223  and  _225
REMARK   90  A    between atoms: _225  and  _226
REMARK   91  A    between atoms: _225  and  _228
REMARK   92  A    between atoms: _228  and  _229
REMARK   93  A    between atoms: _229  and  _230
REMARK   94  A    between atoms: _230  and  _231
REMARK   95  A    between atoms: _240  and  _242
REMARK   96  A    between atoms: _242  and  _243
REMARK   97  A    between atoms: _245  and  _247
REMARK   98  A    between atoms: _247  and  _248
REMARK   99  A    between atoms: _247  and  _250
REMARK  100  A    between atoms: _250  and  _251
REMARK  101  A    between atoms: _257  and  _259
REMARK  102  A    between atoms: _259  and  _260
REMARK  103  A    between atoms: _259  and  _262
REMARK  104  A    between atoms: _262  and  _263
REMARK  105  A    between atoms: _266  and  _268
REMARK  106  A    between atoms: _268  and  _269
REMARK  107  A    between atoms: _268  and  _271
REMARK  108  A    between atoms: _271  and  _272
REMARK  109  A    between atoms: _272  and  _273
REMARK  110  A    between atoms: _278  and  _280
REMARK  111  A    between atoms: _280  and  _281
REMARK  112  A    between atoms: _280  and  _283
REMARK  113  A    between atoms: _283  and  _284
REMARK  114  A    between atoms: _287  and  _289
REMARK  115  A    between atoms: _289  and  _290
REMARK  116  A    between atoms: _289  and  _292
REMARK  117  A    between atoms: _292  and  _293
REMARK  118  A    between atoms: _296  and  _298
REMARK  119  A    between atoms: _298  and  _299
REMARK  120  A    between atoms: _302  and  _304
REMARK  121  A    between atoms: _304  and  _305
REMARK  122  A    between atoms: _304  and  _307
REMARK  123  A    between atoms: _307  and  _308
REMARK  124  A    between atoms: _312  and  ZN_632
REMARK  125  A    between atoms: _313  and  _315
REMARK  126  A    between atoms: _315  and  _316
REMARK  127  A    between atoms: _315  and  _318
REMARK  128  A    between atoms: _318  and  _319
REMARK  129  A    between atoms: _322  and  _324
REMARK  130  A    between atoms: _324  and  _325
REMARK  131  A    between atoms: _324  and  _327
REMARK  132  A    between atoms: _327  and  _328
REMARK  133  A    between atoms: _330  and  _332
REMARK  134  A    between atoms: _332  and  _333
REMARK  135  A    between atoms: _332  and  _335
REMARK  136  A    between atoms: _335  and  _336
REMARK  137  A    between atoms: _336  and  _337
REMARK  138  A    between atoms: _340  and  _342
REMARK  139  A    between atoms: _342  and  _343
REMARK  140  A    between atoms: _345  and  _347
REMARK  141  A    between atoms: _347  and  _348
REMARK  142  A    between atoms: _351  and  _353
REMARK  143  A    between atoms: _353  and  _354
REMARK  144  A    between atoms: _353  and  _356
REMARK  145  A    between atoms: _356  and  _357
REMARK  146  A    between atoms: _363  and  _365
REMARK  147  A    between atoms: _365  and  _366
REMARK  148  A    between atoms: _365  and  _368
REMARK  149  A    between atoms: _368  and  _369
REMARK  150  A    between atoms: _374  and  _375
REMARK  151  A    between atoms: _377  and  _379
REMARK  152  A    between atoms: _379  and  _380
REMARK  153  A    between atoms: _379  and  _382
REMARK  154  A    between atoms: _382  and  _383
REMARK  155  A    between atoms: _383  and  _384
REMARK  156  A    between atoms: _384  and  _385
REMARK  157  A    between atoms: _385  and  _386
REMARK  158  A    between atoms: _390  and  _392
REMARK  159  A    between atoms: _392  and  _393
REMARK  160  A    between atoms: _392  and  _395
REMARK  161  A    between atoms: _395  and  _396
REMARK  162  A    between atoms: _399  and  _401
REMARK  163  A    between atoms: _401  and  _402
REMARK  164  A    between atoms: _401  and  _404
REMARK  165  A    between atoms: _404  and  _405
REMARK  166  A    between atoms: _405  and  _406
REMARK  167  A    between atoms: _409  and  _411
REMARK  168  A    between atoms: _411  and  _412
REMARK  169  A    between atoms: _411  and  _414
REMARK  170  A    between atoms: _414  and  _415
REMARK  171  A    between atoms: _425  and  _427
REMARK  172  A    between atoms: _427  and  _428
REMARK  173  A    between atoms: _427  and  _430
REMARK  174  A    between atoms: _430  and  _431
REMARK  175  A    between atoms: _431  and  _432
REMARK  176  A    between atoms: _437  and  _439
REMARK  177  A    between atoms: _439  and  _440
REMARK  178  A    between atoms: _439  and  _442
REMARK  179  A    between atoms: _444  and  _446
REMARK  180  A    between atoms: _446  and  _447
REMARK  181  A    between atoms: _449  and  _451
REMARK  182  A    between atoms: _451  and  _452
REMARK  183  A    between atoms: _451  and  _454
REMARK  184  A    between atoms: _454  and  _455
REMARK  185  A    between atoms: _458  and  _460
REMARK  186  A    between atoms: _460  and  _461
REMARK  187  A    between atoms: _460  and  _463
REMARK  188  A    between atoms: _466  and  _468
REMARK  189  A    between atoms: _468  and  _469
REMARK  190  A    between atoms: _468  and  _471
REMARK  191  A    between atoms: _471  and  _472
REMARK  192  A    between atoms: _472  and  _473
REMARK  193  A    between atoms: _478  and  _480
REMARK  194  A    between atoms: _480  and  _481
REMARK  195  A    between atoms: _480  and  _483
REMARK  196  A    between atoms: _483  and  _484
REMARK  197  A    between atoms: _487  and  _489
REMARK  198  A    between atoms: _489  and  _490
REMARK  199  A    between atoms: _489  and  _492
REMARK  200  A    between atoms: _492  and  _493
REMARK  201  A    between atoms: _496  and  _498
REMARK  202  A    between atoms: _498  and  _499
REMARK  203  A    between atoms: _498  and  _501
REMARK  204  A    between atoms: _501  and  _502
REMARK  205  A    between atoms: _502  and  _503
REMARK  206  A    between atoms: _505  and  _507
REMARK  207  A    between atoms: _507  and  _508
REMARK  208  A    between atoms: _507  and  _510
REMARK  209  A    between atoms: _510  and  _511
REMARK  210  A    between atoms: _514  and  _516
REMARK  211  A    between atoms: _516  and  _517
REMARK  212  A    between atoms: _516  and  _519
REMARK  213  A    between atoms: _519  and  _520
REMARK  214  A    between atoms: _521  and  ZN_632
REMARK  215  A    between atoms: _525  and  _527
REMARK  216  A    between atoms: _527  and  _528
REMARK  217  A    between atoms: _527  and  _530
REMARK  218  A    between atoms: _530  and  _531
REMARK  219  A    between atoms: _531  and  _532
REMARK  220  A    between atoms: _532  and  _533
REMARK  221  A    between atoms: _542  and  _544
REMARK  222  A    between atoms: _544  and  _545
REMARK  223  A    between atoms: _548  and  _550
REMARK  224  A    between atoms: _550  and  _551
REMARK  225  A    between atoms: _550  and  _553
REMARK  226  A    between atoms: _553  and  _554
REMARK  227  A    between atoms: _557  and  _559
REMARK  228  A    between atoms: _559  and  _560
REMARK  229  A    between atoms: _559  and  _562
REMARK  230  A    between atoms: _562  and  _563
REMARK  231  A    between atoms: _566  and  _568
REMARK  232  A    between atoms: _568  and  _569
REMARK  233  A    between atoms: _571  and  _573
REMARK  234  A    between atoms: _573  and  _574
REMARK  235  A    between atoms: _573  and  _576
REMARK  236  A    between atoms: _576  and  _577
REMARK  237  A    between atoms: _579  and  _581
REMARK  238  A    between atoms: _581  and  _582
REMARK  239  A    between atoms: _581  and  _584
REMARK  240  A    between atoms: _584  and  _585
REMARK  241  A    between atoms: _585  and  _586
REMARK  242  A    between atoms: _588  and  _590
REMARK  243  A    between atoms: _590  and  _591
REMARK  244  A    between atoms: _590  and  _593
REMARK  245  A    between atoms: _593  and  _594
REMARK  246  A    between atoms: _594  and  _595
REMARK  247  A    between atoms: _598  and  _600
REMARK  248  A    between atoms: _600  and  _601
REMARK  249  A    between atoms: _600  and  _603
REMARK  250  A    between atoms: _603  and  _604
REMARK  251  A    between atoms: _604  and  _605
REMARK  252  A    between atoms: _605  and  _606
REMARK  253  A    between atoms: _615  and  _617
REMARK  254  A    between atoms: _617  and  _618
REMARK  255  A    between atoms: _617  and  _620
REMARK  256  A    between atoms: _620  and  _621
REMARK  257  A    between atoms: _627  and  _629
REMARK  258  A    between atoms: _629  and  _630
REMARK                            x       y       z     vdW  Elec       q    Type
REMARK                         _______ _______ _______ _____ _____    ______ ____
ROOT
ATOM      1  CA  ARG A   3     -20.366 -34.493   9.322  0.00  0.00    +0.149 C 
ENDROOT
BRANCH   1   2
ATOM      2  C   ARG A   3     -21.490 -35.162   8.563  0.00  0.00    +0.241 C 
ATOM      3  O   ARG A   3     -22.558 -35.488   9.152  0.00  0.00    -0.273 OA
ATOM      4  N   ASN A   4     -21.255 -35.382   7.269  0.00  0.00    -0.297 N 
ATOM      5  H   ASN A   4     -20.325 -35.146   6.869  0.00  0.00    +0.150 HD
BRANCH   4   6
ATOM      6  CA  ASN A   4     -22.277 -35.944   6.416  0.00  0.00    +0.158 C 
BRANCH   6   7
ATOM      7  C   ASN A   4     -22.290 -37.459   6.557  0.00  0.00    +0.241 C 
ATOM      8  N   GLU A   5     -22.701 -37.938   7.737  0.00  0.00    -0.298 N 
ATOM      9  H   GLU A   5     -23.019 -37.264   8.462  0.00  0.00    +0.150 HD
ATOM     10  O   ASN A   4     -21.889 -38.185   5.632  0.00  0.00    -0.273 OA
BRANCH   8  11
ATOM     11  CA  GLU A   5     -22.724 -39.382   8.058  0.00  0.00    +0.137 C 
BRANCH  11  12
ATOM     12  C   GLU A   5     -23.749 -40.014   7.121  0.00  0.00    +0.227 C 
ATOM     13  O   GLU A   5     -24.829 -39.451   6.951  0.00  0.00    -0.286 OA
ENDBRANCH  11  12
BRANCH  11  14
ATOM     14  CB  GLU A   5     -23.171 -39.633   9.514  0.00  0.00    +0.039 C 
BRANCH  14  15
ATOM     15  CG  GLU A   5     -22.377 -38.854  10.596  0.00  0.00    +0.116 C 
BRANCH  15  16
ATOM     16  CD  GLU A   5     -21.062 -39.532  10.989  0.00  0.00    +0.365 C 
ATOM     17  OE2 GLU A   5     -20.462 -39.110  11.992  0.00  0.00    -0.246 OA
ATOM     18  OE1 GLU A   5     -20.601 -40.461  10.282  0.00  0.00    -0.246 OA
ENDBRANCH  15  16
ENDBRANCH  14  15
ENDBRANCH  11  14
ENDBRANCH   8  11
ENDBRANCH   6   7
BRANCH   6  19
ATOM     19  CB  ASN A   4     -22.023 -35.512   4.954  0.00  0.00    +0.114 C 
BRANCH  19  20
ATOM     20  CG  ASN A   4     -23.151 -35.902   4.027  0.00  0.00    +0.222 C 
ATOM     21  OD1 ASN A   4     -24.249 -36.251   4.476  0.00  0.00    -0.275 OA
ATOM     22  ND2 ASN A   4     -22.866 -35.909   2.712  0.00  0.00    -0.329 N 
ATOM     23 HD21 ASN A   4     -21.927 -35.606   2.382  0.00  0.00    +0.145 HD
ATOM     24 HD22 ASN A   4     -23.584 -36.217   2.026  0.00  0.00    +0.145 HD
ENDBRANCH  19  20
ENDBRANCH   6  19
ENDBRANCH   4   6
ENDBRANCH   1   2
BRANCH   1  26
ATOM     25  C   HIS A   2     -20.447 -32.207  10.145  0.00  0.00    +0.241 C 
ATOM     26  N   ARG A   3     -20.971 -33.427  10.103  0.00  0.00    -0.297 N 
ATOM     27  H   ARG A   3     -21.837 -33.625  10.643  0.00  0.00    +0.150 HD
ATOM     28  O   HIS A   2     -19.374 -31.889   9.635  0.00  0.00    -0.273 OA
BRANCH  25  29
ATOM     29  CA  HIS A   2     -21.238 -31.217  10.941  0.00  0.00    +0.155 C 
BRANCH  29  32
ATOM     30  C   CYS A   1     -20.556 -30.456  13.145  0.00  0.00    +0.239 C 
ATOM     31  O   CYS A   1     -21.610 -30.844  13.696  0.00  0.00    -0.274 OA
ATOM     32  N   HIS A   2     -20.344 -30.524  11.836  0.00  0.00    -0.297 N 
ATOM     33  H   HIS A   2     -19.501 -30.060  11.441  0.00  0.00    +0.150 HD
BRANCH  30  34
ATOM     34  CA  CYS A   1     -19.408 -29.909  13.973  0.00  0.00    +0.156 C 
BRANCH  34  35
ATOM     35  CB  CYS A   1     -18.549 -31.117  14.396  0.00  0.00    +0.095 C 
ATOM     36  SG  CYS A   1     -17.111 -30.647  15.364  0.00  0.00    -0.080 S 
ENDBRANCH  34  35
BRANCH  34  37
ATOM     37  N   CYS A   1     -19.924 -29.283  15.150  0.00  0.00    -0.237 NA
ATOM     38  H   CYS A   1     -20.402 -29.881  15.854  0.00  0.00    +0.142 HD
ENDBRANCH  34  37
ENDBRANCH  30  34
ENDBRANCH  29  32
BRANCH  29  39
ATOM     39  CB  HIS A   2     -21.937 -30.226  10.033  0.00  0.00    +0.076 C 
BRANCH  39  40
ATOM     40  CG  HIS A   2     -22.932 -29.375  10.790  0.00  0.00    +0.082 A 
ATOM     41  ND1 HIS A   2     -22.570 -28.267  11.455  0.00  0.00    -0.227 NA
ATOM     42  CE1 HIS A   2     -23.648 -27.764  12.118  0.00  0.00    +0.199 A 
ATOM     43  NE2 HIS A   2     -24.721 -28.527  11.816  0.00  0.00    -0.221 NA
ATOM     44  CD2 HIS A   2     -24.304 -29.549  11.011  0.00  0.00    +0.115 A 
ENDBRANCH  39  40
ENDBRANCH  29  39
ENDBRANCH  25  29
ENDBRANCH   1  26
BRANCH   1  45
ATOM     45  CB  ARG A   3     -19.659 -35.509  10.227  0.00  0.00    +0.033 C 
BRANCH  45  46
ATOM     46  CG  ARG A   3     -18.482 -34.916  10.999  0.00  0.00    +0.045 C 
BRANCH  46  47
ATOM     47  CD  ARG A   3     -17.691 -35.949  11.765  0.00  0.00    +0.174 C 
BRANCH  47  48
ATOM     48  NE  ARG A   3     -16.681 -35.239  12.576  0.00  0.00    -0.265 N 
ATOM     49  CZ  ARG A   3     -15.796 -35.816  13.371  0.00  0.00    +0.342 C 
ATOM     50  NH2 ARG A   3     -14.964 -35.060  14.075  0.00  0.00    -0.292 N 
ATOM     51 HH21 ARG A   3     -14.264 -35.503  14.703  0.00  0.00    +0.255 HD
ATOM     52 HH22 ARG A   3     -15.012 -34.024  13.999  0.00  0.00    +0.255 HD
ATOM     53  NH1 ARG A   3     -15.773 -37.156  13.497  0.00  0.00    -0.292 N 
ATOM     54 HH11 ARG A   3     -15.076 -37.608  14.123  0.00  0.00    +0.255 HD
ATOM     55 HH12 ARG A   3     -16.452 -37.740  12.968  0.00  0.00    +0.255 HD
ATOM     56  HE  ARG A   3     -16.665 -34.201  12.517  0.00  0.00    +0.259 HD
ENDBRANCH  47  48
ENDBRANCH  46  47
ENDBRANCH  45  46
ENDBRANCH   1  45
TORSDOF 22
REMARK  Name = ../refined-set-2016/4hwo/4hwo_pocket.pdb
REMARK  258 active torsions:
REMARK  status: ('A' for Active; 'I' for Inactive)
REMARK    1  A    between atoms: _1  and  _3
REMARK    2  A    between atoms: _3  and  _4
REMARK    3  A    between atoms: _6  and  _8
REMARK    4  A    between atoms: _8  and  _9
REMARK    5  A    between atoms: _8  and  _11
REMARK    6  A    between atoms: _14  and  _16
REMARK    7  A    between atoms: _16  and  _17
REMARK    8  A    between atoms: _16  and  _19
REMARK    9  A    between atoms: _19  and  _20
REMARK   10  A    between atoms: _25  and  _27
REMARK   11  A    between atoms: _27  and  _28
REMARK   12  A    between atoms: _27  and  _30
REMARK   13  A    between atoms: _30  and  _31
REMARK   14  A    between atoms: _36  and  _37
REMARK   15  A    between atoms: _40  and  _41
REMARK   16  A    between atoms: _46  and  _48
REMARK   17  A    between atoms: _48  and  _49
REMARK   18  A    between atoms: _48  and  _51
REMARK   19  A    between atoms: _51  and  _52
REMARK   20  A    between atoms: _52  and  _53
REMARK   21  A    between atoms: _55  and  _57
REMARK   22  A    between atoms: _57  and  _58
REMARK   23  A    between atoms: _57  and  _60
REMARK   24  A    between atoms: _60  and  _61
REMARK   25  A    between atoms: _66  and  _68
REMARK   26  A    between atoms: _68  and  _69
REMARK   27  A    between atoms: _68  and  _71
REMARK   28  A    between atoms: _71  and  _72
REMARK   29  A    between atoms: _72  and  ZN_632
REMARK   30  A    between atoms: _74  and  _75
REMARK   31  A    between atoms: _80  and  _82
REMARK   32  A    between atoms: _82  and  _83
REMARK   33  A    between atoms: _82  and  _85
REMARK   34  A    between atoms: _85  and  _86
REMARK   35  A    between atoms: _91  and  _93
REMARK   36  A    between atoms: _93  and  _94
REMARK   37  A    between atoms: _93  and  _96
REMARK   38  A    between atoms: _98  and  _100
REMARK   39  A    between atoms: _100  and  _101
REMARK   40  A    between atoms: _100  and  _103
REMARK   41  A    between atoms: _103  and  _104
REMARK   42  A    between atoms: _109  and  _111
REMARK   43  A    between atoms: _111  and  _112
REMARK   44  A    between atoms: _111  and  _114
REMARK   45  A    between atoms: _114  and  _115
REMARK   46  A    between atoms: _115  and  _116
REMARK   47  A    between atoms: _116  and  _117
REMARK   48  A    between atoms: _126  and  _128
REMARK   49  A    between atoms: _128  and  _129
REMARK   50  A    between atoms: _128  and  _131
REMARK   51  A    between atoms: _131  and  _132
REMARK   52  A    between atoms: _137  and  _139
REMARK   53  A    between atoms: _139  and  _140
REMARK   54  A    between atoms: _139  and  _142
REMARK   55  A    between atoms: _142  and  _143
REMARK   56  A    between atoms: _143  and  _144
REMARK   57  A    between atoms: _147  and  _149
REMARK   58  A    between atoms: _149  and  _150
REMARK   59  A    between atoms: _149  and  _152
REMARK   60  A    between atoms: _152  and  _153
REMARK   61  A    between atoms: _155  and  _157
REMARK   62  A    between atoms: _157  and  _158
REMARK   63  A    between atoms: _157  and  _160
REMARK   64  A    between atoms: _160  and  _161
REMARK   65  A    between atoms: _164  and  _166
REMARK   66  A    between atoms: _166  and  _167
REMARK   67  A    between atoms: _166  and  _169
REMARK   68  A    between atoms: _169  and  _170
REMARK   69  A    between atoms: _175  and  _177
REMARK   70  A    between atoms: _177  and  _178
REMARK   71  A    between atoms: _180  and  _182
REMARK   72  A    between atoms: _182  and  _183
REMARK   73  A    between atoms: _182  and  _185
REMARK   74  A    between atoms: _185  and  _186
REMARK   75  A    between atoms: _189  and  _191
REMARK   76  A    between atoms: _191  and  _192
REMARK   77  A    between atoms: _191  and  _194
REMARK   78  A    between atoms: _194  and  _195
REMARK   79  A    between atoms: _195  and  _196
REMARK   80  A    between atoms: _198  and  _200
REMARK   81  A    between atoms: _200  and  _201
REMARK   82  A    between atoms: _200  and  _203
REMARK   83  A    between atoms: _203  and  _204
REMARK   84  A    between atoms: _204  and  _205
REMARK   85  A    between atoms: _205  and  _206
REMARK   86  A    between atoms: _215  and  _217
REMARK   87  A    between atoms: _217  and  _218
REMARK   88  A    between atoms: _217  and  _220
REMARK   89  A    between atoms: _223  and  _225
REMARK   90  A    between atoms: _225  and  _226
REMARK   91  A    between atoms: _225  and  _228
REMARK   92  A    between atoms: _228  and  _229
REMARK   93  A    between atoms: _229  and  _230
REMARK   94  A    between atoms: _230  and  _231
REMARK   95  A    between atoms: _240  and  _242
REMARK   96  A    between atoms: _242  and  _243
REMARK   97  A    between atoms: _245  and  _247
REMARK   98  A    between atoms: _247  and  _248
REMARK   99  A    between atoms: _247  and  _250
REMARK  100  A    between atoms: _250  and  _251
REMARK  101  A    between atoms: _257  and  _259
REMARK  102  A    between atoms: _259  and  _260
REMARK  103  A    between atoms: _259  and  _262
REMARK  104  A    between atoms: _262  and  _263
REMARK  105  A    between atoms: _266  and  _268
REMARK  106  A    between atoms: _268  and  _269
REMARK  107  A    between atoms: _268  and  _271
REMARK  108  A    between atoms: _271  and  _272
REMARK  109  A    between atoms: _272  and  _273
REMARK  110  A    between atoms: _278  and  _280
REMARK  111  A    between atoms: _280  and  _281
REMARK  112  A    between atoms: _280  and  _283
REMARK  113  A    between atoms: _283  and  _284
REMARK  114  A    between atoms: _287  and  _289
REMARK  115  A    between atoms: _289  and  _290
REMARK  116  A    between atoms: _289  and  _292
REMARK  117  A    between atoms: _292  and  _293
REMARK  118  A    between atoms: _296  and  _298
REMARK  119  A    between atoms: _298  and  _299
REMARK  120  A    between atoms: _302  and  _304
REMARK  121  A    between atoms: _304  and  _305
REMARK  122  A    between atoms: _304  and  _307
REMARK  123  A    between atoms: _307  and  _308
REMARK  124  A    between atoms: _312  and  ZN_632
REMARK  125  A    between atoms: _313  and  _315
REMARK  126  A    between atoms: _315  and  _316
REMARK  127  A    between atoms: _315  and  _318
REMARK  128  A    between atoms: _318  and  _319
REMARK  129  A    between atoms: _322  and  _324
REMARK  130  A    between atoms: _324  and  _325
REMARK  131  A    between atoms: _324  and  _327
REMARK  132  A    between atoms: _327  and  _328
REMARK  133  A    between atoms: _330  and  _332
REMARK  134  A    between atoms: _332  and  _333
REMARK  135  A    between atoms: _332  and  _335
REMARK  136  A    between atoms: _335  and  _336
REMARK  137  A    between atoms: _336  and  _337
REMARK  138  A    between atoms: _340  and  _342
REMARK  139  A    between atoms: _342  and  _343
REMARK  140  A    between atoms: _345  and  _347
REMARK  141  A    between atoms: _347  and  _348
REMARK  142  A    between atoms: _351  and  _353
REMARK  143  A    between atoms: _353  and  _354
REMARK  144  A    between atoms: _353  and  _356
REMARK  145  A    between atoms: _356  and  _357
REMARK  146  A    between atoms: _363  and  _365
REMARK  147  A    between atoms: _365  and  _366
REMARK  148  A    between atoms: _365  and  _368
REMARK  149  A    between atoms: _368  and  _369
REMARK  150  A    between atoms: _374  and  _375
REMARK  151  A    between atoms: _377  and  _379
REMARK  152  A    between atoms: _379  and  _380
REMARK  153  A    between atoms: _379  and  _382
REMARK  154  A    between atoms: _382  and  _383
REMARK  155  A    between atoms: _383  and  _384
REMARK  156  A    between atoms: _384  and  _385
REMARK  157  A    between atoms: _385  and  _386
REMARK  158  A    between atoms: _390  and  _392
REMARK  159  A    between atoms: _392  and  _393
REMARK  160  A    between atoms: _392  and  _395
REMARK  161  A    between atoms: _395  and  _396
REMARK  162  A    between atoms: _399  and  _401
REMARK  163  A    between atoms: _401  and  _402
REMARK  164  A    between atoms: _401  and  _404
REMARK  165  A    between atoms: _404  and  _405
REMARK  166  A    between atoms: _405  and  _406
REMARK  167  A    between atoms: _409  and  _411
REMARK  168  A    between atoms: _411  and  _412
REMARK  169  A    between atoms: _411  and  _414
REMARK  170  A    between atoms: _414  and  _415
REMARK  171  A    between atoms: _425  and  _427
REMARK  172  A    between atoms: _427  and  _428
REMARK  173  A    between atoms: _427  and  _430
REMARK  174  A    between atoms: _430  and  _431
REMARK  175  A    between atoms: _431  and  _432
REMARK  176  A    between atoms: _437  and  _439
REMARK  177  A    between atoms: _439  and  _440
REMARK  178  A    between atoms: _439  and  _442
REMARK  179  A    between atoms: _444  and  _446
REMARK  180  A    between atoms: _446  and  _447
REMARK  181  A    between atoms: _449  and  _451
REMARK  182  A    between atoms: _451  and  _452
REMARK  183  A    between atoms: _451  and  _454
REMARK  184  A    between atoms: _454  and  _455
REMARK  185  A    between atoms: _458  and  _460
REMARK  186  A    between atoms: _460  and  _461
REMARK  187  A    between atoms: _460  and  _463
REMARK  188  A    between atoms: _466  and  _468
REMARK  189  A    between atoms: _468  and  _469
REMARK  190  A    between atoms: _468  and  _471
REMARK  191  A    between atoms: _471  and  _472
REMARK  192  A    between atoms: _472  and  _473
REMARK  193  A    between atoms: _478  and  _480
REMARK  194  A    between atoms: _480  and  _481
REMARK  195  A    between atoms: _480  and  _483
REMARK  196  A    between atoms: _483  and  _484
REMARK  197  A    between atoms: _487  and  _489
REMARK  198  A    between atoms: _489  and  _490
REMARK  199  A    between atoms: _489  and  _492
REMARK  200  A    between atoms: _492  and  _493
REMARK  201  A    between atoms: _496  and  _498
REMARK  202  A    between atoms: _498  and  _499
REMARK  203  A    between atoms: _498  and  _501
REMARK  204  A    between atoms: _501  and  _502
REMARK  205  A    between atoms: _502  and  _503
REMARK  206  A    between atoms: _505  and  _507
REMARK  207  A    between atoms: _507  and  _508
REMARK  208  A    between atoms: _507  and  _510
REMARK  209  A    between atoms: _510  and  _511
REMARK  210  A    between atoms: _514  and  _516
REMARK  211  A    between atoms: _516  and  _517
REMARK  212  A    between atoms: _516  and  _519
REMARK  213  A    between atoms: _519  and  _520
REMARK  214  A    between atoms: _521  and  ZN_632
REMARK  215  A    between atoms: _525  and  _527
REMARK  216  A    between atoms: _527  and  _528
REMARK  217  A    between atoms: _527  and  _530
REMARK  218  A    between atoms: _530  and  _531
REMARK  219  A    between atoms: _531  and  _532
REMARK  220  A    between atoms: _532  and  _533
REMARK  221  A    between atoms: _542  and  _544
REMARK  222  A    between atoms: _544  and  _545
REMARK  223  A    between atoms: _548  and  _550
REMARK  224  A    between atoms: _550  and  _551
REMARK  225  A    between atoms: _550  and  _553
REMARK  226  A    between atoms: _553  and  _554
REMARK  227  A    between atoms: _557  and  _559
REMARK  228  A    between atoms: _559  and  _560
REMARK  229  A    between atoms: _559  and  _562
REMARK  230  A    between atoms: _562  and  _563
REMARK  231  A    between atoms: _566  and  _568
REMARK  232  A    between atoms: _568  and  _569
REMARK  233  A    between atoms: _571  and  _573
REMARK  234  A    between atoms: _573  and  _574
REMARK  235  A    between atoms: _573  and  _576
REMARK  236  A    between atoms: _576  and  _577
REMARK  237  A    between atoms: _579  and  _581
REMARK  238  A    between atoms: _581  and  _582
REMARK  239  A    between atoms: _581  and  _584
REMARK  240  A    between atoms: _584  and  _585
REMARK  241  A    between atoms: _585  and  _586
REMARK  242  A    between atoms: _588  and  _590
REMARK  243  A    between atoms: _590  and  _591
REMARK  244  A    between atoms: _590  and  _593
REMARK  245  A    between atoms: _593  and  _594
REMARK  246  A    between atoms: _594  and  _595
REMARK  247  A    between atoms: _598  and  _600
REMARK  248  A    between atoms: _600  and  _601
REMARK  249  A    between atoms: _600  and  _603
REMARK  250  A    between atoms: _603  and  _604
REMARK  251  A    between atoms: _604  and  _605
REMARK  252  A    between atoms: _605  and  _606
REMARK  253  A    between atoms: _615  and  _617
REMARK  254  A    between atoms: _617  and  _618
REMARK  255  A    between atoms: _617  and  _620
REMARK  256  A    between atoms: _620  and  _621
REMARK  257  A    between atoms: _627  and  _629
REMARK  258  A    between atoms: _629  and  _630
REMARK                            x       y       z     vdW  Elec       q    Type
REMARK                         _______ _______ _______ _____ _____    ______ ____
ROOT
ATOM      1  CA  SER A   1      -6.431 -46.831  17.958  0.00  0.00    +0.163 C 
ENDROOT
BRANCH   1   2
ATOM      2  N   SER A   1      -6.172 -46.713  19.379  0.00  0.00    -0.237 NA
ATOM      3  H   SER A   1      -6.422 -45.821  19.852  0.00  0.00    +0.142 HD
ENDBRANCH   1   2
BRANCH   1   4
ATOM      4  C   SER A   1      -5.210 -46.337  17.142  0.00  0.00    +0.227 C 
ATOM      5  O   SER A   1      -4.782 -45.167  17.237  0.00  0.00    -0.287 OA
ENDBRANCH   1   4
BRANCH   1   6
ATOM      6  CB  SER A   1      -7.695 -46.041  17.611  0.00  0.00    +0.162 C 
BRANCH   6   7
ATOM      7  OG  SER A   1      -8.803 -46.749  18.165  0.00  0.00    -0.380 OA
ATOM      8  H   SER A   1      -9.640 -46.263  17.958  0.00  0.00    +0.211 HD
ENDBRANCH   6   7
ENDBRANCH   1   6
TORSDOF 4
REMARK  Name = ../refined-set-2016/4hwo/4hwo_pocket.pdb
REMARK  258 active torsions:
REMARK  status: ('A' for Active; 'I' for Inactive)
REMARK    1  A    between atoms: _1  and  _3
REMARK    2  A    between atoms: _3  and  _4
REMARK    3  A    between atoms: _6  and  _8
REMARK    4  A    between atoms: _8  and  _9
REMARK    5  A    between atoms: _8  and  _11
REMARK    6  A    between atoms: _14  and  _16
REMARK    7  A    between atoms: _16  and  _17
REMARK    8  A    between atoms: _16  and  _19
REMARK    9  A    between atoms: _19  and  _20
REMARK   10  A    between atoms: _25  and  _27
REMARK   11  A    between atoms: _27  and  _28
REMARK   12  A    between atoms: _27  and  _30
REMARK   13  A    between atoms: _30  and  _31
REMARK   14  A    between atoms: _36  and  _37
REMARK   15  A    between atoms: _40  and  _41
REMARK   16  A    between atoms: _46  and  _48
REMARK   17  A    between atoms: _48  and  _49
REMARK   18  A    between atoms: _48  and  _51
REMARK   19  A    between atoms: _51  and  _52
REMARK   20  A    between atoms: _52  and  _53
REMARK   21  A    between atoms: _55  and  _57
REMARK   22  A    between atoms: _57  and  _58
REMARK   23  A    between atoms: _57  and  _60
REMARK   24  A    between atoms: _60  and  _61
REMARK   25  A    between atoms: _66  and  _68
REMARK   26  A    between atoms: _68  and  _69
REMARK   27  A    between atoms: _68  and  _71
REMARK   28  A    between atoms: _71  and  _72
REMARK   29  A    between atoms: _72  and  ZN_632
REMARK   30  A    between atoms: _74  and  _75
REMARK   31  A    between atoms: _80  and  _82
REMARK   32  A    between atoms: _82  and  _83
REMARK   33  A    between atoms: _82  and  _85
REMARK   34  A    between atoms: _85  and  _86
REMARK   35  A    between atoms: _91  and  _93
REMARK   36  A    between atoms: _93  and  _94
REMARK   37  A    between atoms: _93  and  _96
REMARK   38  A    between atoms: _98  and  _100
REMARK   39  A    between atoms: _100  and  _101
REMARK   40  A    between atoms: _100  and  _103
REMARK   41  A    between atoms: _103  and  _104
REMARK   42  A    between atoms: _109  and  _111
REMARK   43  A    between atoms: _111  and  _112
REMARK   44  A    between atoms: _111  and  _114
REMARK   45  A    between atoms: _114  and  _115
REMARK   46  A    between atoms: _115  and  _116
REMARK   47  A    between atoms: _116  and  _117
REMARK   48  A    between atoms: _126  and  _128
REMARK   49  A    between atoms: _128  and  _129
REMARK   50  A    between atoms: _128  and  _131
REMARK   51  A    between atoms: _131  and  _132
REMARK   52  A    between atoms: _137  and  _139
REMARK   53  A    between atoms: _139  and  _140
REMARK   54  A    between atoms: _139  and  _142
REMARK   55  A    between atoms: _142  and  _143
REMARK   56  A    between atoms: _143  and  _144
REMARK   57  A    between atoms: _147  and  _149
REMARK   58  A    between atoms: _149  and  _150
REMARK   59  A    between atoms: _149  and  _152
REMARK   60  A    between atoms: _152  and  _153
REMARK   61  A    between atoms: _155  and  _157
REMARK   62  A    between atoms: _157  and  _158
REMARK   63  A    between atoms: _157  and  _160
REMARK   64  A    between atoms: _160  and  _161
REMARK   65  A    between atoms: _164  and  _166
REMARK   66  A    between atoms: _166  and  _167
REMARK   67  A    between atoms: _166  and  _169
REMARK   68  A    between atoms: _169  and  _170
REMARK   69  A    between atoms: _175  and  _177
REMARK   70  A    between atoms: _177  and  _178
REMARK   71  A    between atoms: _180  and  _182
REMARK   72  A    between atoms: _182  and  _183
REMARK   73  A    between atoms: _182  and  _185
REMARK   74  A    between atoms: _185  and  _186
REMARK   75  A    between atoms: _189  and  _191
REMARK   76  A    between atoms: _191  and  _192
REMARK   77  A    between atoms: _191  and  _194
REMARK   78  A    between atoms: _194  and  _195
REMARK   79  A    between atoms: _195  and  _196
REMARK   80  A    between atoms: _198  and  _200
REMARK   81  A    between atoms: _200  and  _201
REMARK   82  A    between atoms: _200  and  _203
REMARK   83  A    between atoms: _203  and  _204
REMARK   84  A    between atoms: _204  and  _205
REMARK   85  A    between atoms: _205  and  _206
REMARK   86  A    between atoms: _215  and  _217
REMARK   87  A    between atoms: _217  and  _218
REMARK   88  A    between atoms: _217  and  _220
REMARK   89  A    between atoms: _223  and  _225
REMARK   90  A    between atoms: _225  and  _226
REMARK   91  A    between atoms: _225  and  _228
REMARK   92  A    between atoms: _228  and  _229
REMARK   93  A    between atoms: _229  and  _230
REMARK   94  A    between atoms: _230  and  _231
REMARK   95  A    between atoms: _240  and  _242
REMARK   96  A    between atoms: _242  and  _243
REMARK   97  A    between atoms: _245  and  _247
REMARK   98  A    between atoms: _247  and  _248
REMARK   99  A    between atoms: _247  and  _250
REMARK  100  A    between atoms: _250  and  _251
REMARK  101  A    between atoms: _257  and  _259
REMARK  102  A    between atoms: _259  and  _260
REMARK  103  A    between atoms: _259  and  _262
REMARK  104  A    between atoms: _262  and  _263
REMARK  105  A    between atoms: _266  and  _268
REMARK  106  A    between atoms: _268  and  _269
REMARK  107  A    between atoms: _268  and  _271
REMARK  108  A    between atoms: _271  and  _272
REMARK  109  A    between atoms: _272  and  _273
REMARK  110  A    between atoms: _278  and  _280
REMARK  111  A    between atoms: _280  and  _281
REMARK  112  A    between atoms: _280  and  _283
REMARK  113  A    between atoms: _283  and  _284
REMARK  114  A    between atoms: _287  and  _289
REMARK  115  A    between atoms: _289  and  _290
REMARK  116  A    between atoms: _289  and  _292
REMARK  117  A    between atoms: _292  and  _293
REMARK  118  A    between atoms: _296  and  _298
REMARK  119  A    between atoms: _298  and  _299
REMARK  120  A    between atoms: _302  and  _304
REMARK  121  A    between atoms: _304  and  _305
REMARK  122  A    between atoms: _304  and  _307
REMARK  123  A    between atoms: _307  and  _308
REMARK  124  A    between atoms: _312  and  ZN_632
REMARK  125  A    between atoms: _313  and  _315
REMARK  126  A    between atoms: _315  and  _316
REMARK  127  A    between atoms: _315  and  _318
REMARK  128  A    between atoms: _318  and  _319
REMARK  129  A    between atoms: _322  and  _324
REMARK  130  A    between atoms: _324  and  _325
REMARK  131  A    between atoms: _324  and  _327
REMARK  132  A    between atoms: _327  and  _328
REMARK  133  A    between atoms: _330  and  _332
REMARK  134  A    between atoms: _332  and  _333
REMARK  135  A    between atoms: _332  and  _335
REMARK  136  A    between atoms: _335  and  _336
REMARK  137  A    between atoms: _336  and  _337
REMARK  138  A    between atoms: _340  and  _342
REMARK  139  A    between atoms: _342  and  _343
REMARK  140  A    between atoms: _345  and  _347
REMARK  141  A    between atoms: _347  and  _348
REMARK  142  A    between atoms: _351  and  _353
REMARK  143  A    between atoms: _353  and  _354
REMARK  144  A    between atoms: _353  and  _356
REMARK  145  A    between atoms: _356  and  _357
REMARK  146  A    between atoms: _363  and  _365
REMARK  147  A    between atoms: _365  and  _366
REMARK  148  A    between atoms: _365  and  _368
REMARK  149  A    between atoms: _368  and  _369
REMARK  150  A    between atoms: _374  and  _375
REMARK  151  A    between atoms: _377  and  _379
REMARK  152  A    between atoms: _379  and  _380
REMARK  153  A    between atoms: _379  and  _382
REMARK  154  A    between atoms: _382  and  _383
REMARK  155  A    between atoms: _383  and  _384
REMARK  156  A    between atoms: _384  and  _385
REMARK  157  A    between atoms: _385  and  _386
REMARK  158  A    between atoms: _390  and  _392
REMARK  159  A    between atoms: _392  and  _393
REMARK  160  A    between atoms: _392  and  _395
REMARK  161  A    between atoms: _395  and  _396
REMARK  162  A    between atoms: _399  and  _401
REMARK  163  A    between atoms: _401  and  _402
REMARK  164  A    between atoms: _401  and  _404
REMARK  165  A    between atoms: _404  and  _405
REMARK  166  A    between atoms: _405  and  _406
REMARK  167  A    between atoms: _409  and  _411
REMARK  168  A    between atoms: _411  and  _412
REMARK  169  A    between atoms: _411  and  _414
REMARK  170  A    between atoms: _414  and  _415
REMARK  171  A    between atoms: _425  and  _427
REMARK  172  A    between atoms: _427  and  _428
REMARK  173  A    between atoms: _427  and  _430
REMARK  174  A    between atoms: _430  and  _431
REMARK  175  A    between atoms: _431  and  _432
REMARK  176  A    between atoms: _437  and  _439
REMARK  177  A    between atoms: _439  and  _440
REMARK  178  A    between atoms: _439  and  _442
REMARK  179  A    between atoms: _444  and  _446
REMARK  180  A    between atoms: _446  and  _447
REMARK  181  A    between atoms: _449  and  _451
REMARK  182  A    between atoms: _451  and  _452
REMARK  183  A    between atoms: _451  and  _454
REMARK  184  A    between atoms: _454  and  _455
REMARK  185  A    between atoms: _458  and  _460
REMARK  186  A    between atoms: _460  and  _461
REMARK  187  A    between atoms: _460  and  _463
REMARK  188  A    between atoms: _466  and  _468
REMARK  189  A    between atoms: _468  and  _469
REMARK  190  A    between atoms: _468  and  _471
REMARK  191  A    between atoms: _471  and  _472
REMARK  192  A    between atoms: _472  and  _473
REMARK  193  A    between atoms: _478  and  _480
REMARK  194  A    between atoms: _480  and  _481
REMARK  195  A    between atoms: _480  and  _483
REMARK  196  A    between atoms: _483  and  _484
REMARK  197  A    between atoms: _487  and  _489
REMARK  198  A    between atoms: _489  and  _490
REMARK  199  A    between atoms: _489  and  _492
REMARK  200  A    between atoms: _492  and  _493
REMARK  201  A    between atoms: _496  and  _498
REMARK  202  A    between atoms: _498  and  _499
REMARK  203  A    between atoms: _498  and  _501
REMARK  204  A    between atoms: _501  and  _502
REMARK  205  A    between atoms: _502  and  _503
REMARK  206  A    between atoms: _505  and  _507
REMARK  207  A    between atoms: _507  and  _508
REMARK  208  A    between atoms: _507  and  _510
REMARK  209  A    between atoms: _510  and  _511
REMARK  210  A    between atoms: _514  and  _516
REMARK  211  A    between atoms: _516  and  _517
REMARK  212  A    between atoms: _516  and  _519
REMARK  213  A    between atoms: _519  and  _520
REMARK  214  A    between atoms: _521  and  ZN_632
REMARK  215  A    between atoms: _525  and  _527
REMARK  216  A    between atoms: _527  and  _528
REMARK  217  A    between atoms: _527  and  _530
REMARK  218  A    between atoms: _530  and  _531
REMARK  219  A    between atoms: _531  and  _532
REMARK  220  A    between atoms: _532  and  _533
REMARK  221  A    between atoms: _542  and  _544
REMARK  222  A    between atoms: _544  and  _545
REMARK  223  A    between atoms: _548  and  _550
REMARK  224  A    between atoms: _550  and  _551
REMARK  225  A    between atoms: _550  and  _553
REMARK  226  A    between atoms: _553  and  _554
REMARK  227  A    between atoms: _557  and  _559
REMARK  228  A    between atoms: _559  and  _560
REMARK  229  A    between atoms: _559  and  _562
REMARK  230  A    between atoms: _562  and  _563
REMARK  231  A    between atoms: _566  and  _568
REMARK  232  A    between atoms: _568  and  _569
REMARK  233  A    between atoms: _571  and  _573
REMARK  234  A    between atoms: _573  and  _574
REMARK  235  A    between atoms: _573  and  _576
REMARK  236  A    between atoms: _576  and  _577
REMARK  237  A    between atoms: _579  and  _581
REMARK  238  A    between atoms: _581  and  _582
REMARK  239  A    between atoms: _581  and  _584
REMARK  240  A    between atoms: _584  and  _585
REMARK  241  A    between atoms: _585  and  _586
REMARK  242  A    between atoms: _588  and  _590
REMARK  243  A    between atoms: _590  and  _591
REMARK  244  A    between atoms: _590  and  _593
REMARK  245  A    between atoms: _593  and  _594
REMARK  246  A    between atoms: _594  and  _595
REMARK  247  A    between atoms: _598  and  _600
REMARK  248  A    between atoms: _600  and  _601
REMARK  249  A    between atoms: _600  and  _603
REMARK  250  A    between atoms: _603  and  _604
REMARK  251  A    between atoms: _604  and  _605
REMARK  252  A    between atoms: _605  and  _606
REMARK  253  A    between atoms: _615  and  _617
REMARK  254  A    between atoms: _617  and  _618
REMARK  255  A    between atoms: _617  and  _620
REMARK  256  A    between atoms: _620  and  _621
REMARK  257  A    between atoms: _627  and  _629
REMARK  258  A    between atoms: _629  and  _630
REMARK                            x       y       z     vdW  Elec       q    Type
REMARK                         _______ _______ _______ _____ _____    ______ ____
ROOT
ATOM      1  CA  PHE A   4      -5.668 -39.461   9.740  0.00  0.00    +0.153 C 
ENDROOT
BRANCH   1   4
ATOM      2  C   ALA A   3      -6.336 -40.267  11.921  0.00  0.00    +0.241 C 
ATOM      3  O   ALA A   3      -5.214 -40.802  12.056  0.00  0.00    -0.273 OA
ATOM      4  N   PHE A   4      -6.677 -39.609  10.817  0.00  0.00    -0.297 N 
ATOM      5  H   PHE A   4      -7.630 -39.207  10.711  0.00  0.00    +0.150 HD
BRANCH   2   6
ATOM      6  CA  ALA A   3      -7.378 -40.403  13.022  0.00  0.00    +0.149 C 
ATOM      7  CB  ALA A   3      -7.467 -39.131  13.860  0.00  0.00    +0.031 C 
BRANCH   6   9
ATOM      8  C   GLY A   2      -7.144 -42.807  13.468  0.00  0.00    +0.243 C 
ATOM      9  N   ALA A   3      -6.979 -41.540  13.860  0.00  0.00    -0.297 N 
ATOM     10  H   ALA A   3      -6.553 -41.353  14.790  0.00  0.00    +0.150 HD
ATOM     11  O   GLY A   2      -7.718 -43.129  12.399  0.00  0.00    -0.273 OA
BRANCH   8  12
ATOM     12  CA  GLY A   2      -6.624 -43.861  14.425  0.00  0.00    +0.176 C 
BRANCH  12  15
ATOM     13  C   GLU A   1      -8.340 -45.558  14.147  0.00  0.00    +0.238 C 
ATOM     14  O   GLU A   1      -9.239 -44.757  14.508  0.00  0.00    -0.274 OA
ATOM     15  N   GLY A   2      -7.059 -45.219  14.099  0.00  0.00    -0.296 N 
ATOM     16  H   GLY A   2      -6.352 -45.931  13.825  0.00  0.00    +0.150 HD
BRANCH  13  17
ATOM     17  CA  GLU A   1      -8.685 -46.984  13.684  0.00  0.00    +0.145 C 
BRANCH  17  18
ATOM     18  N   GLU A   1      -7.525 -47.856  13.356  0.00  0.00    -0.238 NA
ATOM     19  H   GLU A   1      -6.948 -48.255  14.124  0.00  0.00    +0.142 HD
ENDBRANCH  17  18
BRANCH  17  20
ATOM     20  CB  GLU A   1      -9.625 -47.696  14.689  0.00  0.00    +0.038 C 
BRANCH  20  21
ATOM     21  CG  GLU A   1     -10.344 -48.914  14.105  0.00  0.00    +0.116 C 
BRANCH  21  22
ATOM     22  CD  GLU A   1     -11.366 -48.550  13.028  0.00  0.00    +0.365 C 
ATOM     23  OE2 GLU A   1     -11.967 -47.455  13.041  0.00  0.00    -0.246 OA
ATOM     24  OE1 GLU A   1     -11.574 -49.383  12.132  0.00  0.00    -0.246 OA
ENDBRANCH  21  22
ENDBRANCH  20  21
ENDBRANCH  17  20
ENDBRANCH  13  17
ENDBRANCH  12  15
ENDBRANCH   8  12
ENDBRANCH   6   9
ENDBRANCH   2   6
ENDBRANCH   1   4
BRANCH   1  25
ATOM     25  C   PHE A   4      -4.389 -38.725  10.204  0.00  0.00    +0.241 C 
ATOM     26  N   TYR A   5      -4.546 -37.874  11.218  0.00  0.00    -0.298 N 
ATOM     27  H   TYR A   5      -5.483 -37.811  11.666  0.00  0.00    +0.150 HD
ATOM     28  O   PHE A   4      -3.287 -38.920   9.631  0.00  0.00    -0.273 OA
BRANCH  26  29
ATOM     29  CA  TYR A   5      -3.456 -37.008  11.746  0.00  0.00    +0.141 C 
BRANCH  29  30
ATOM     30  C   TYR A   5      -2.791 -37.562  13.020  0.00  0.00    +0.227 C 
ATOM     31  O   TYR A   5      -1.763 -37.000  13.498  0.00  0.00    -0.286 OA
ENDBRANCH  29  30
BRANCH  29  32
ATOM     32  CB  TYR A   5      -3.969 -35.569  12.039  0.00  0.00    +0.054 C 
BRANCH  32  33
ATOM     33  CG  TYR A   5      -5.199 -35.582  12.902  0.00  0.00    -0.020 A 
ATOM     34  CD2 TYR A   5      -5.118 -35.748  14.271  0.00  0.00    -0.001 A 
ATOM     35  CE2 TYR A   5      -6.255 -35.858  15.057  0.00  0.00    +0.036 A 
ATOM     36  CZ  TYR A   5      -7.498 -35.750  14.448  0.00  0.00    +0.134 A 
ATOM     37  CE1 TYR A   5      -7.606 -35.572  13.086  0.00  0.00    +0.036 A 
ATOM     38  CD1 TYR A   5      -6.462 -35.498  12.320  0.00  0.00    -0.001 A 
BRANCH  36  39
ATOM     39  OH  TYR A   5      -8.670 -35.816  15.166  0.00  0.00    -0.506 OA
ATOM     40  HH  TYR A   5      -9.439 -35.718  14.550  0.00  0.00    +0.292 HD
ENDBRANCH  36  39
ENDBRANCH  32  33
ENDBRANCH  29  32
ENDBRANCH  26  29
ENDBRANCH   1  25
BRANCH   1  41
ATOM     41  CB  PHE A   4      -6.268 -38.819   8.454  0.00  0.00    +0.055 C 
BRANCH  41  42
ATOM     42  CG  PHE A   4      -6.534 -37.332   8.539  0.00  0.00    -0.020 A 
ATOM     43  CD2 PHE A   4      -7.813 -36.848   8.852  0.00  0.00    -0.004 A 
ATOM     44  CE2 PHE A   4      -8.069 -35.461   8.898  0.00  0.00    -0.000 A 
ATOM     45  CZ  PHE A   4      -7.042 -34.558   8.610  0.00  0.00    -0.000 A 
ATOM     46  CE1 PHE A   4      -5.786 -35.046   8.261  0.00  0.00    -0.000 A 
ATOM     47  CD1 PHE A   4      -5.545 -36.414   8.208  0.00  0.00    -0.004 A 
ENDBRANCH  41  42
ENDBRANCH   1  41
TORSDOF 18
REMARK  Name = ../refined-set-2016/4hwo/4hwo_pocket.pdb
REMARK  258 active torsions:
REMARK  status: ('A' for Active; 'I' for Inactive)
REMARK    1  A    between atoms: _1  and  _3
REMARK    2  A    between atoms: _3  and  _4
REMARK    3  A    between atoms: _6  and  _8
REMARK    4  A    between atoms: _8  and  _9
REMARK    5  A    between atoms: _8  and  _11
REMARK    6  A    between atoms: _14  and  _16
REMARK    7  A    between atoms: _16  and  _17
REMARK    8  A    between atoms: _16  and  _19
REMARK    9  A    between atoms: _19  and  _20
REMARK   10  A    between atoms: _25  and  _27
REMARK   11  A    between atoms: _27  and  _28
REMARK   12  A    between atoms: _27  and  _30
REMARK   13  A    between atoms: _30  and  _31
REMARK   14  A    between atoms: _36  and  _37
REMARK   15  A    between atoms: _40  and  _41
REMARK   16  A    between atoms: _46  and  _48
REMARK   17  A    between atoms: _48  and  _49
REMARK   18  A    between atoms: _48  and  _51
REMARK   19  A    between atoms: _51  and  _52
REMARK   20  A    between atoms: _52  and  _53
REMARK   21  A    between atoms: _55  and  _57
REMARK   22  A    between atoms: _57  and  _58
REMARK   23  A    between atoms: _57  and  _60
REMARK   24  A    between atoms: _60  and  _61
REMARK   25  A    between atoms: _66  and  _68
REMARK   26  A    between atoms: _68  and  _69
REMARK   27  A    between atoms: _68  and  _71
REMARK   28  A    between atoms: _71  and  _72
REMARK   29  A    between atoms: _72  and  ZN_632
REMARK   30  A    between atoms: _74  and  _75
REMARK   31  A    between atoms: _80  and  _82
REMARK   32  A    between atoms: _82  and  _83
REMARK   33  A    between atoms: _82  and  _85
REMARK   34  A    between atoms: _85  and  _86
REMARK   35  A    between atoms: _91  and  _93
REMARK   36  A    between atoms: _93  and  _94
REMARK   37  A    between atoms: _93  and  _96
REMARK   38  A    between atoms: _98  and  _100
REMARK   39  A    between atoms: _100  and  _101
REMARK   40  A    between atoms: _100  and  _103
REMARK   41  A    between atoms: _103  and  _104
REMARK   42  A    between atoms: _109  and  _111
REMARK   43  A    between atoms: _111  and  _112
REMARK   44  A    between atoms: _111  and  _114
REMARK   45  A    between atoms: _114  and  _115
REMARK   46  A    between atoms: _115  and  _116
REMARK   47  A    between atoms: _116  and  _117
REMARK   48  A    between atoms: _126  and  _128
REMARK   49  A    between atoms: _128  and  _129
REMARK   50  A    between atoms: _128  and  _131
REMARK   51  A    between atoms: _131  and  _132
REMARK   52  A    between atoms: _137  and  _139
REMARK   53  A    between atoms: _139  and  _140
REMARK   54  A    between atoms: _139  and  _142
REMARK   55  A    between atoms: _142  and  _143
REMARK   56  A    between atoms: _143  and  _144
REMARK   57  A    between atoms: _147  and  _149
REMARK   58  A    between atoms: _149  and  _150
REMARK   59  A    between atoms: _149  and  _152
REMARK   60  A    between atoms: _152  and  _153
REMARK   61  A    between atoms: _155  and  _157
REMARK   62  A    between atoms: _157  and  _158
REMARK   63  A    between atoms: _157  and  _160
REMARK   64  A    between atoms: _160  and  _161
REMARK   65  A    between atoms: _164  and  _166
REMARK   66  A    between atoms: _166  and  _167
REMARK   67  A    between atoms: _166  and  _169
REMARK   68  A    between atoms: _169  and  _170
REMARK   69  A    between atoms: _175  and  _177
REMARK   70  A    between atoms: _177  and  _178
REMARK   71  A    between atoms: _180  and  _182
REMARK   72  A    between atoms: _182  and  _183
REMARK   73  A    between atoms: _182  and  _185
REMARK   74  A    between atoms: _185  and  _186
REMARK   75  A    between atoms: _189  and  _191
REMARK   76  A    between atoms: _191  and  _192
REMARK   77  A    between atoms: _191  and  _194
REMARK   78  A    between atoms: _194  and  _195
REMARK   79  A    between atoms: _195  and  _196
REMARK   80  A    between atoms: _198  and  _200
REMARK   81  A    between atoms: _200  and  _201
REMARK   82  A    between atoms: _200  and  _203
REMARK   83  A    between atoms: _203  and  _204
REMARK   84  A    between atoms: _204  and  _205
REMARK   85  A    between atoms: _205  and  _206
REMARK   86  A    between atoms: _215  and  _217
REMARK   87  A    between atoms: _217  and  _218
REMARK   88  A    between atoms: _217  and  _220
REMARK   89  A    between atoms: _223  and  _225
REMARK   90  A    between atoms: _225  and  _226
REMARK   91  A    between atoms: _225  and  _228
REMARK   92  A    between atoms: _228  and  _229
REMARK   93  A    between atoms: _229  and  _230
REMARK   94  A    between atoms: _230  and  _231
REMARK   95  A    between atoms: _240  and  _242
REMARK   96  A    between atoms: _242  and  _243
REMARK   97  A    between atoms: _245  and  _247
REMARK   98  A    between atoms: _247  and  _248
REMARK   99  A    between atoms: _247  and  _250
REMARK  100  A    between atoms: _250  and  _251
REMARK  101  A    between atoms: _257  and  _259
REMARK  102  A    between atoms: _259  and  _260
REMARK  103  A    between atoms: _259  and  _262
REMARK  104  A    between atoms: _262  and  _263
REMARK  105  A    between atoms: _266  and  _268
REMARK  106  A    between atoms: _268  and  _269
REMARK  107  A    between atoms: _268  and  _271
REMARK  108  A    between atoms: _271  and  _272
REMARK  109  A    between atoms: _272  and  _273
REMARK  110  A    between atoms: _278  and  _280
REMARK  111  A    between atoms: _280  and  _281
REMARK  112  A    between atoms: _280  and  _283
REMARK  113  A    between atoms: _283  and  _284
REMARK  114  A    between atoms: _287  and  _289
REMARK  115  A    between atoms: _289  and  _290
REMARK  116  A    between atoms: _289  and  _292
REMARK  117  A    between atoms: _292  and  _293
REMARK  118  A    between atoms: _296  and  _298
REMARK  119  A    between atoms: _298  and  _299
REMARK  120  A    between atoms: _302  and  _304
REMARK  121  A    between atoms: _304  and  _305
REMARK  122  A    between atoms: _304  and  _307
REMARK  123  A    between atoms: _307  and  _308
REMARK  124  A    between atoms: _312  and  ZN_632
REMARK  125  A    between atoms: _313  and  _315
REMARK  126  A    between atoms: _315  and  _316
REMARK  127  A    between atoms: _315  and  _318
REMARK  128  A    between atoms: _318  and  _319
REMARK  129  A    between atoms: _322  and  _324
REMARK  130  A    between atoms: _324  and  _325
REMARK  131  A    between atoms: _324  and  _327
REMARK  132  A    between atoms: _327  and  _328
REMARK  133  A    between atoms: _330  and  _332
REMARK  134  A    between atoms: _332  and  _333
REMARK  135  A    between atoms: _332  and  _335
REMARK  136  A    between atoms: _335  and  _336
REMARK  137  A    between atoms: _336  and  _337
REMARK  138  A    between atoms: _340  and  _342
REMARK  139  A    between atoms: _342  and  _343
REMARK  140  A    between atoms: _345  and  _347
REMARK  141  A    between atoms: _347  and  _348
REMARK  142  A    between atoms: _351  and  _353
REMARK  143  A    between atoms: _353  and  _354
REMARK  144  A    between atoms: _353  and  _356
REMARK  145  A    between atoms: _356  and  _357
REMARK  146  A    between atoms: _363  and  _365
REMARK  147  A    between atoms: _365  and  _366
REMARK  148  A    between atoms: _365  and  _368
REMARK  149  A    between atoms: _368  and  _369
REMARK  150  A    between atoms: _374  and  _375
REMARK  151  A    between atoms: _377  and  _379
REMARK  152  A    between atoms: _379  and  _380
REMARK  153  A    between atoms: _379  and  _382
REMARK  154  A    between atoms: _382  and  _383
REMARK  155  A    between atoms: _383  and  _384
REMARK  156  A    between atoms: _384  and  _385
REMARK  157  A    between atoms: _385  and  _386
REMARK  158  A    between atoms: _390  and  _392
REMARK  159  A    between atoms: _392  and  _393
REMARK  160  A    between atoms: _392  and  _395
REMARK  161  A    between atoms: _395  and  _396
REMARK  162  A    between atoms: _399  and  _401
REMARK  163  A    between atoms: _401  and  _402
REMARK  164  A    between atoms: _401  and  _404
REMARK  165  A    between atoms: _404  and  _405
REMARK  166  A    between atoms: _405  and  _406
REMARK  167  A    between atoms: _409  and  _411
REMARK  168  A    between atoms: _411  and  _412
REMARK  169  A    between atoms: _411  and  _414
REMARK  170  A    between atoms: _414  and  _415
REMARK  171  A    between atoms: _425  and  _427
REMARK  172  A    between atoms: _427  and  _428
REMARK  173  A    between atoms: _427  and  _430
REMARK  174  A    between atoms: _430  and  _431
REMARK  175  A    between atoms: _431  and  _432
REMARK  176  A    between atoms: _437  and  _439
REMARK  177  A    between atoms: _439  and  _440
REMARK  178  A    between atoms: _439  and  _442
REMARK  179  A    between atoms: _444  and  _446
REMARK  180  A    between atoms: _446  and  _447
REMARK  181  A    between atoms: _449  and  _451
REMARK  182  A    between atoms: _451  and  _452
REMARK  183  A    between atoms: _451  and  _454
REMARK  184  A    between atoms: _454  and  _455
REMARK  185  A    between atoms: _458  and  _460
REMARK  186  A    between atoms: _460  and  _461
REMARK  187  A    between atoms: _460  and  _463
REMARK  188  A    between atoms: _466  and  _468
REMARK  189  A    between atoms: _468  and  _469
REMARK  190  A    between atoms: _468  and  _471
REMARK  191  A    between atoms: _471  and  _472
REMARK  192  A    between atoms: _472  and  _473
REMARK  193  A    between atoms: _478  and  _480
REMARK  194  A    between atoms: _480  and  _481
REMARK  195  A    between atoms: _480  and  _483
REMARK  196  A    between atoms: _483  and  _484
REMARK  197  A    between atoms: _487  and  _489
REMARK  198  A    between atoms: _489  and  _490
REMARK  199  A    between atoms: _489  and  _492
REMARK  200  A    between atoms: _492  and  _493
REMARK  201  A    between atoms: _496  and  _498
REMARK  202  A    between atoms: _498  and  _499
REMARK  203  A    between atoms: _498  and  _501
REMARK  204  A    between atoms: _501  and  _502
REMARK  205  A    between atoms: _502  and  _503
REMARK  206  A    between atoms: _505  and  _507
REMARK  207  A    between atoms: _507  and  _508
REMARK  208  A    between atoms: _507  and  _510
REMARK  209  A    between atoms: _510  and  _511
REMARK  210  A    between atoms: _514  and  _516
REMARK  211  A    between atoms: _516  and  _517
REMARK  212  A    between atoms: _516  and  _519
REMARK  213  A    between atoms: _519  and  _520
REMARK  214  A    between atoms: _521  and  ZN_632
REMARK  215  A    between atoms: _525  and  _527
REMARK  216  A    between atoms: _527  and  _528
REMARK  217  A    between atoms: _527  and  _530
REMARK  218  A    between atoms: _530  and  _531
REMARK  219  A    between atoms: _531  and  _532
REMARK  220  A    between atoms: _532  and  _533
REMARK  221  A    between atoms: _542  and  _544
REMARK  222  A    between atoms: _544  and  _545
REMARK  223  A    between atoms: _548  and  _550
REMARK  224  A    between atoms: _550  and  _551
REMARK  225  A    between atoms: _550  and  _553
REMARK  226  A    between atoms: _553  and  _554
REMARK  227  A    between atoms: _557  and  _559
REMARK  228  A    between atoms: _559  and  _560
REMARK  229  A    between atoms: _559  and  _562
REMARK  230  A    between atoms: _562  and  _563
REMARK  231  A    between atoms: _566  and  _568
REMARK  232  A    between atoms: _568  and  _569
REMARK  233  A    between atoms: _571  and  _573
REMARK  234  A    between atoms: _573  and  _574
REMARK  235  A    between atoms: _573  and  _576
REMARK  236  A    between atoms: _576  and  _577
REMARK  237  A    between atoms: _579  and  _581
REMARK  238  A    between atoms: _581  and  _582
REMARK  239  A    between atoms: _581  and  _584
REMARK  240  A    between atoms: _584  and  _585
REMARK  241  A    between atoms: _585  and  _586
REMARK  242  A    between atoms: _588  and  _590
REMARK  243  A    between atoms: _590  and  _591
REMARK  244  A    between atoms: _590  and  _593
REMARK  245  A    between atoms: _593  and  _594
REMARK  246  A    between atoms: _594  and  _595
REMARK  247  A    between atoms: _598  and  _600
REMARK  248  A    between atoms: _600  and  _601
REMARK  249  A    between atoms: _600  and  _603
REMARK  250  A    between atoms: _603  and  _604
REMARK  251  A    between atoms: _604  and  _605
REMARK  252  A    between atoms: _605  and  _606
REMARK  253  A    between atoms: _615  and  _617
REMARK  254  A    between atoms: _617  and  _618
REMARK  255  A    between atoms: _617  and  _620
REMARK  256  A    between atoms: _620  and  _621
REMARK  257  A    between atoms: _627  and  _629
REMARK  258  A    between atoms: _629  and  _630
REMARK                            x       y       z     vdW  Elec       q    Type
REMARK                         _______ _______ _______ _____ _____    ______ ____
ROOT
ATOM      1  CA  ILE A   2      -6.974 -43.306  23.031  0.00  0.00    +0.148 C 
ENDROOT
BRANCH   1   3
ATOM      2  C   LYS A   1      -6.468 -42.910  20.720  0.00  0.00    +0.238 C 
ATOM      3  N   ILE A   2      -6.438 -42.487  21.960  0.00  0.00    -0.297 N 
ATOM      4  H   ILE A   2      -6.027 -41.557  22.178  0.00  0.00    +0.150 HD
ATOM      5  O   LYS A   1      -6.537 -44.094  20.490  0.00  0.00    -0.274 OA
BRANCH   2   6
ATOM      6  CA  LYS A   1      -6.397 -41.939  19.555  0.00  0.00    +0.145 C 
BRANCH   6   7
ATOM      7  N   LYS A   1      -5.308 -42.365  18.661  0.00  0.00    -0.238 NA
ATOM      8  H   LYS A   1      -5.265 -43.372  18.403  0.00  0.00    +0.142 HD
ENDBRANCH   6   7
BRANCH   6   9
ATOM      9  CB  LYS A   1      -7.770 -42.096  18.827  0.00  0.00    +0.026 C 
BRANCH   9  10
ATOM     10  CG  LYS A   1      -7.943 -41.236  17.602  0.00  0.00    -0.000 C 
BRANCH  10  11
ATOM     11  CD  LYS A   1      -9.166 -41.659  16.728  0.00  0.00    -0.024 C 
BRANCH  11  12
ATOM     12  CE  LYS A   1     -10.496 -41.641  17.468  0.00  0.00    -0.086 C 
BRANCH  12  13
ATOM     13  NZ  LYS A   1     -11.692 -41.857  16.561  0.00  0.00    +0.380 N 
ATOM     14  HZ1 LYS A   1     -12.564 -41.833  17.127  0.00  0.00    -0.089 HD
ATOM     15  HZ2 LYS A   1     -11.607 -42.781  16.092  0.00  0.00    -0.089 HD
ATOM     16  HZ3 LYS A   1     -11.722 -41.104  15.844  0.00  0.00    -0.089 HD
ENDBRANCH  12  13
ENDBRANCH  11  12
ENDBRANCH  10  11
ENDBRANCH   9  10
ENDBRANCH   6   9
ENDBRANCH   2   6
ENDBRANCH   1   3
BRANCH   1  17
ATOM     17  C   ILE A   2      -8.495 -43.115  22.934  0.00  0.00    +0.241 C 
ATOM     18  N   GLU A   3      -9.272 -44.205  22.993  0.00  0.00    -0.298 N 
ATOM     19  H   GLU A   3      -8.814 -45.138  23.005  0.00  0.00    +0.150 HD
ATOM     20  O   ILE A   2      -8.948 -41.968  22.761  0.00  0.00    -0.273 OA
BRANCH  18  21
ATOM     21  CA  GLU A   3     -10.747 -44.147  23.042  0.00  0.00    +0.137 C 
BRANCH  21  22
ATOM     22  C   GLU A   3     -11.285 -44.679  24.359  0.00  0.00    +0.227 C 
ATOM     23  O   GLU A   3     -10.916 -45.780  24.808  0.00  0.00    -0.286 OA
ENDBRANCH  21  22
BRANCH  21  24
ATOM     24  CB  GLU A   3     -11.381 -44.961  21.894  0.00  0.00    +0.039 C 
BRANCH  24  25
ATOM     25  CG  GLU A   3     -10.834 -44.573  20.523  0.00  0.00    +0.116 C 
BRANCH  25  26
ATOM     26  CD  GLU A   3     -11.486 -45.316  19.387  0.00  0.00    +0.365 C 
ATOM     27  OE2 GLU A   3     -12.553 -45.926  19.629  0.00  0.00    -0.246 OA
ATOM     28  OE1 GLU A   3     -10.942 -45.240  18.274  0.00  0.00    -0.246 OA
ENDBRANCH  25  26
ENDBRANCH  24  25
ENDBRANCH  21  24
ENDBRANCH  18  21
ENDBRANCH   1  17
BRANCH   1  29
ATOM     29  CB  ILE A   2      -6.472 -42.793  24.411  0.00  0.00    +0.027 C 
ATOM     30  CG2 ILE A   2      -7.248 -43.460  25.564  0.00  0.00    +0.002 C 
BRANCH  29  31
ATOM     31  CG1 ILE A   2      -4.954 -42.953  24.517  0.00  0.00    +0.002 C 
ATOM     32  CD1 ILE A   2      -4.348 -42.193  25.703  0.00  0.00    +0.000 C 
ENDBRANCH  29  31
ENDBRANCH   1  29
TORSDOF 16
REMARK  Name = ../refined-set-2016/4hwo/4hwo_pocket.pdb
REMARK  258 active torsions:
REMARK  status: ('A' for Active; 'I' for Inactive)
REMARK    1  A    between atoms: _1  and  _3
REMARK    2  A    between atoms: _3  and  _4
REMARK    3  A    between atoms: _6  and  _8
REMARK    4  A    between atoms: _8  and  _9
REMARK    5  A    between atoms: _8  and  _11
REMARK    6  A    between atoms: _14  and  _16
REMARK    7  A    between atoms: _16  and  _17
REMARK    8  A    between atoms: _16  and  _19
REMARK    9  A    between atoms: _19  and  _20
REMARK   10  A    between atoms: _25  and  _27
REMARK   11  A    between atoms: _27  and  _28
REMARK   12  A    between atoms: _27  and  _30
REMARK   13  A    between atoms: _30  and  _31
REMARK   14  A    between atoms: _36  and  _37
REMARK   15  A    between atoms: _40  and  _41
REMARK   16  A    between atoms: _46  and  _48
REMARK   17  A    between atoms: _48  and  _49
REMARK   18  A    between atoms: _48  and  _51
REMARK   19  A    between atoms: _51  and  _52
REMARK   20  A    between atoms: _52  and  _53
REMARK   21  A    between atoms: _55  and  _57
REMARK   22  A    between atoms: _57  and  _58
REMARK   23  A    between atoms: _57  and  _60
REMARK   24  A    between atoms: _60  and  _61
REMARK   25  A    between atoms: _66  and  _68
REMARK   26  A    between atoms: _68  and  _69
REMARK   27  A    between atoms: _68  and  _71
REMARK   28  A    between atoms: _71  and  _72
REMARK   29  A    between atoms: _72  and  ZN_632
REMARK   30  A    between atoms: _74  and  _75
REMARK   31  A    between atoms: _80  and  _82
REMARK   32  A    between atoms: _82  and  _83
REMARK   33  A    between atoms: _82  and  _85
REMARK   34  A    between atoms: _85  and  _86
REMARK   35  A    between atoms: _91  and  _93
REMARK   36  A    between atoms: _93  and  _94
REMARK   37  A    between atoms: _93  and  _96
REMARK   38  A    between atoms: _98  and  _100
REMARK   39  A    between atoms: _100  and  _101
REMARK   40  A    between atoms: _100  and  _103
REMARK   41  A    between atoms: _103  and  _104
REMARK   42  A    between atoms: _109  and  _111
REMARK   43  A    between atoms: _111  and  _112
REMARK   44  A    between atoms: _111  and  _114
REMARK   45  A    between atoms: _114  and  _115
REMARK   46  A    between atoms: _115  and  _116
REMARK   47  A    between atoms: _116  and  _117
REMARK   48  A    between atoms: _126  and  _128
REMARK   49  A    between atoms: _128  and  _129
REMARK   50  A    between atoms: _128  and  _131
REMARK   51  A    between atoms: _131  and  _132
REMARK   52  A    between atoms: _137  and  _139
REMARK   53  A    between atoms: _139  and  _140
REMARK   54  A    between atoms: _139  and  _142
REMARK   55  A    between atoms: _142  and  _143
REMARK   56  A    between atoms: _143  and  _144
REMARK   57  A    between atoms: _147  and  _149
REMARK   58  A    between atoms: _149  and  _150
REMARK   59  A    between atoms: _149  and  _152
REMARK   60  A    between atoms: _152  and  _153
REMARK   61  A    between atoms: _155  and  _157
REMARK   62  A    between atoms: _157  and  _158
REMARK   63  A    between atoms: _157  and  _160
REMARK   64  A    between atoms: _160  and  _161
REMARK   65  A    between atoms: _164  and  _166
REMARK   66  A    between atoms: _166  and  _167
REMARK   67  A    between atoms: _166  and  _169
REMARK   68  A    between atoms: _169  and  _170
REMARK   69  A    between atoms: _175  and  _177
REMARK   70  A    between atoms: _177  and  _178
REMARK   71  A    between atoms: _180  and  _182
REMARK   72  A    between atoms: _182  and  _183
REMARK   73  A    between atoms: _182  and  _185
REMARK   74  A    between atoms: _185  and  _186
REMARK   75  A    between atoms: _189  and  _191
REMARK   76  A    between atoms: _191  and  _192
REMARK   77  A    between atoms: _191  and  _194
REMARK   78  A    between atoms: _194  and  _195
REMARK   79  A    between atoms: _195  and  _196
REMARK   80  A    between atoms: _198  and  _200
REMARK   81  A    between atoms: _200  and  _201
REMARK   82  A    between atoms: _200  and  _203
REMARK   83  A    between atoms: _203  and  _204
REMARK   84  A    between atoms: _204  and  _205
REMARK   85  A    between atoms: _205  and  _206
REMARK   86  A    between atoms: _215  and  _217
REMARK   87  A    between atoms: _217  and  _218
REMARK   88  A    between atoms: _217  and  _220
REMARK   89  A    between atoms: _223  and  _225
REMARK   90  A    between atoms: _225  and  _226
REMARK   91  A    between atoms: _225  and  _228
REMARK   92  A    between atoms: _228  and  _229
REMARK   93  A    between atoms: _229  and  _230
REMARK   94  A    between atoms: _230  and  _231
REMARK   95  A    between atoms: _240  and  _242
REMARK   96  A    between atoms: _242  and  _243
REMARK   97  A    between atoms: _245  and  _247
REMARK   98  A    between atoms: _247  and  _248
REMARK   99  A    between atoms: _247  and  _250
REMARK  100  A    between atoms: _250  and  _251
REMARK  101  A    between atoms: _257  and  _259
REMARK  102  A    between atoms: _259  and  _260
REMARK  103  A    between atoms: _259  and  _262
REMARK  104  A    between atoms: _262  and  _263
REMARK  105  A    between atoms: _266  and  _268
REMARK  106  A    between atoms: _268  and  _269
REMARK  107  A    between atoms: _268  and  _271
REMARK  108  A    between atoms: _271  and  _272
REMARK  109  A    between atoms: _272  and  _273
REMARK  110  A    between atoms: _278  and  _280
REMARK  111  A    between atoms: _280  and  _281
REMARK  112  A    between atoms: _280  and  _283
REMARK  113  A    between atoms: _283  and  _284
REMARK  114  A    between atoms: _287  and  _289
REMARK  115  A    between atoms: _289  and  _290
REMARK  116  A    between atoms: _289  and  _292
REMARK  117  A    between atoms: _292  and  _293
REMARK  118  A    between atoms: _296  and  _298
REMARK  119  A    between atoms: _298  and  _299
REMARK  120  A    between atoms: _302  and  _304
REMARK  121  A    between atoms: _304  and  _305
REMARK  122  A    between atoms: _304  and  _307
REMARK  123  A    between atoms: _307  and  _308
REMARK  124  A    between atoms: _312  and  ZN_632
REMARK  125  A    between atoms: _313  and  _315
REMARK  126  A    between atoms: _315  and  _316
REMARK  127  A    between atoms: _315  and  _318
REMARK  128  A    between atoms: _318  and  _319
REMARK  129  A    between atoms: _322  and  _324
REMARK  130  A    between atoms: _324  and  _325
REMARK  131  A    between atoms: _324  and  _327
REMARK  132  A    between atoms: _327  and  _328
REMARK  133  A    between atoms: _330  and  _332
REMARK  134  A    between atoms: _332  and  _333
REMARK  135  A    between atoms: _332  and  _335
REMARK  136  A    between atoms: _335  and  _336
REMARK  137  A    between atoms: _336  and  _337
REMARK  138  A    between atoms: _340  and  _342
REMARK  139  A    between atoms: _342  and  _343
REMARK  140  A    between atoms: _345  and  _347
REMARK  141  A    between atoms: _347  and  _348
REMARK  142  A    between atoms: _351  and  _353
REMARK  143  A    between atoms: _353  and  _354
REMARK  144  A    between atoms: _353  and  _356
REMARK  145  A    between atoms: _356  and  _357
REMARK  146  A    between atoms: _363  and  _365
REMARK  147  A    between atoms: _365  and  _366
REMARK  148  A    between atoms: _365  and  _368
REMARK  149  A    between atoms: _368  and  _369
REMARK  150  A    between atoms: _374  and  _375
REMARK  151  A    between atoms: _377  and  _379
REMARK  152  A    between atoms: _379  and  _380
REMARK  153  A    between atoms: _379  and  _382
REMARK  154  A    between atoms: _382  and  _383
REMARK  155  A    between atoms: _383  and  _384
REMARK  156  A    between atoms: _384  and  _385
REMARK  157  A    between atoms: _385  and  _386
REMARK  158  A    between atoms: _390  and  _392
REMARK  159  A    between atoms: _392  and  _393
REMARK  160  A    between atoms: _392  and  _395
REMARK  161  A    between atoms: _395  and  _396
REMARK  162  A    between atoms: _399  and  _401
REMARK  163  A    between atoms: _401  and  _402
REMARK  164  A    between atoms: _401  and  _404
REMARK  165  A    between atoms: _404  and  _405
REMARK  166  A    between atoms: _405  and  _406
REMARK  167  A    between atoms: _409  and  _411
REMARK  168  A    between atoms: _411  and  _412
REMARK  169  A    between atoms: _411  and  _414
REMARK  170  A    between atoms: _414  and  _415
REMARK  171  A    between atoms: _425  and  _427
REMARK  172  A    between atoms: _427  and  _428
REMARK  173  A    between atoms: _427  and  _430
REMARK  174  A    between atoms: _430  and  _431
REMARK  175  A    between atoms: _431  and  _432
REMARK  176  A    between atoms: _437  and  _439
REMARK  177  A    between atoms: _439  and  _440
REMARK  178  A    between atoms: _439  and  _442
REMARK  179  A    between atoms: _444  and  _446
REMARK  180  A    between atoms: _446  and  _447
REMARK  181  A    between atoms: _449  and  _451
REMARK  182  A    between atoms: _451  and  _452
REMARK  183  A    between atoms: _451  and  _454
REMARK  184  A    between atoms: _454  and  _455
REMARK  185  A    between atoms: _458  and  _460
REMARK  186  A    between atoms: _460  and  _461
REMARK  187  A    between atoms: _460  and  _463
REMARK  188  A    between atoms: _466  and  _468
REMARK  189  A    between atoms: _468  and  _469
REMARK  190  A    between atoms: _468  and  _471
REMARK  191  A    between atoms: _471  and  _472
REMARK  192  A    between atoms: _472  and  _473
REMARK  193  A    between atoms: _478  and  _480
REMARK  194  A    between atoms: _480  and  _481
REMARK  195  A    between atoms: _480  and  _483
REMARK  196  A    between atoms: _483  and  _484
REMARK  197  A    between atoms: _487  and  _489
REMARK  198  A    between atoms: _489  and  _490
REMARK  199  A    between atoms: _489  and  _492
REMARK  200  A    between atoms: _492  and  _493
REMARK  201  A    between atoms: _496  and  _498
REMARK  202  A    between atoms: _498  and  _499
REMARK  203  A    between atoms: _498  and  _501
REMARK  204  A    between atoms: _501  and  _502
REMARK  205  A    between atoms: _502  and  _503
REMARK  206  A    between atoms: _505  and  _507
REMARK  207  A    between atoms: _507  and  _508
REMARK  208  A    between atoms: _507  and  _510
REMARK  209  A    between atoms: _510  and  _511
REMARK  210  A    between atoms: _514  and  _516
REMARK  211  A    between atoms: _516  and  _517
REMARK  212  A    between atoms: _516  and  _519
REMARK  213  A    between atoms: _519  and  _520
REMARK  214  A    between atoms: _521  and  ZN_632
REMARK  215  A    between atoms: _525  and  _527
REMARK  216  A    between atoms: _527  and  _528
REMARK  217  A    between atoms: _527  and  _530
REMARK  218  A    between atoms: _530  and  _531
REMARK  219  A    between atoms: _531  and  _532
REMARK  220  A    between atoms: _532  and  _533
REMARK  221  A    between atoms: _542  and  _544
REMARK  222  A    between atoms: _544  and  _545
REMARK  223  A    between atoms: _548  and  _550
REMARK  224  A    between atoms: _550  and  _551
REMARK  225  A    between atoms: _550  and  _553
REMARK  226  A    between atoms: _553  and  _554
REMARK  227  A    between atoms: _557  and  _559
REMARK  228  A    between atoms: _559  and  _560
REMARK  229  A    between atoms: _559  and  _562
REMARK  230  A    between atoms: _562  and  _563
REMARK  231  A    between atoms: _566  and  _568
REMARK  232  A    between atoms: _568  and  _569
REMARK  233  A    between atoms: _571  and  _573
REMARK  234  A    between atoms: _573  and  _574
REMARK  235  A    between atoms: _573  and  _576
REMARK  236  A    between atoms: _576  and  _577
REMARK  237  A    between atoms: _579  and  _581
REMARK  238  A    between atoms: _581  and  _582
REMARK  239  A    between atoms: _581  and  _584
REMARK  240  A    between atoms: _584  and  _585
REMARK  241  A    between atoms: _585  and  _586
REMARK  242  A    between atoms: _588  and  _590
REMARK  243  A    between atoms: _590  and  _591
REMARK  244  A    between atoms: _590  and  _593
REMARK  245  A    between atoms: _593  and  _594
REMARK  246  A    between atoms: _594  and  _595
REMARK  247  A    between atoms: _598  and  _600
REMARK  248  A    between atoms: _600  and  _601
REMARK  249  A    between atoms: _600  and  _603
REMARK  250  A    between atoms: _603  and  _604
REMARK  251  A    between atoms: _604  and  _605
REMARK  252  A    between atoms: _605  and  _606
REMARK  253  A    between atoms: _615  and  _617
REMARK  254  A    between atoms: _617  and  _618
REMARK  255  A    between atoms: _617  and  _620
REMARK  256  A    between atoms: _620  and  _621
REMARK  257  A    between atoms: _627  and  _629
REMARK  258  A    between atoms: _629  and  _630
REMARK                            x       y       z     vdW  Elec       q    Type
REMARK                         _______ _______ _______ _____ _____    ______ ____
ROOT
ATOM      1  C   CYS A   3     -15.810 -40.183  24.276  0.00  0.00    +0.242 C 
ATOM      2  N   GLY A   4     -15.127 -40.395  25.389  0.00  0.00    -0.295 N 
ATOM      3  H   GLY A   4     -15.517 -41.015  26.128  0.00  0.00    +0.150 HD
ATOM      4  O   CYS A   3     -15.418 -39.400  23.406  0.00  0.00    -0.273 OA
ENDROOT
BRANCH   1   5
ATOM      5  CA  CYS A   3     -17.069 -41.013  24.035  0.00  0.00    +0.160 C 
BRANCH   5   7
ATOM      6  C   GLN A   2     -17.135 -42.493  22.144  0.00  0.00    +0.241 C 
ATOM      7  N   CYS A   3     -16.691 -42.237  23.359  0.00  0.00    -0.296 N 
ATOM      8  H   CYS A   3     -16.066 -42.918  23.835  0.00  0.00    +0.150 HD
ATOM      9  O   GLN A   2     -17.920 -41.730  21.559  0.00  0.00    -0.273 OA
BRANCH   6  10
ATOM     10  CA  GLN A   2     -16.659 -43.786  21.492  0.00  0.00    +0.149 C 
BRANCH  10  13
ATOM     11  C   TRP A   1     -18.579 -45.136  22.048  0.00  0.00    +0.239 C 
ATOM     12  O   TRP A   1     -18.320 -45.025  23.255  0.00  0.00    -0.274 OA
ATOM     13  N   GLN A   2     -17.803 -44.620  21.112  0.00  0.00    -0.297 N 
ATOM     14  H   GLN A   2     -18.003 -44.805  20.108  0.00  0.00    +0.150 HD
BRANCH  11  15
ATOM     15  CA  TRP A   1     -19.796 -45.885  21.592  0.00  0.00    +0.149 C 
BRANCH  15  16
ATOM     16  N   TRP A   1     -19.835 -47.258  22.142  0.00  0.00    -0.238 NA
ATOM     17  H   TRP A   1     -19.872 -47.395  23.172  0.00  0.00    +0.142 HD
ENDBRANCH  15  16
BRANCH  15  18
ATOM     18  CB  TRP A   1     -21.054 -45.092  22.000  0.00  0.00    +0.054 C 
BRANCH  18  19
ATOM     19  CG  TRP A   1     -22.299 -45.641  21.373  0.00  0.00    -0.002 A 
ATOM     20  CD1 TRP A   1     -23.208 -46.525  21.946  0.00  0.00    +0.068 A 
ATOM     21  NE1 TRP A   1     -24.228 -46.798  21.067  0.00  0.00    -0.352 N 
ATOM     22  HE1 TRP A   1     -25.047 -47.403  21.279  0.00  0.00    +0.166 HD
ATOM     23  CE2 TRP A   1     -24.015 -46.160  19.869  0.00  0.00    +0.056 A 
ATOM     24  CZ2 TRP A   1     -24.757 -46.173  18.683  0.00  0.00    +0.017 A 
ATOM     25  CH2 TRP A   1     -24.286 -45.397  17.618  0.00  0.00    +0.001 A 
ATOM     26  CZ3 TRP A   1     -23.114 -44.616  17.744  0.00  0.00    +0.000 A 
ATOM     27  CE3 TRP A   1     -22.325 -44.635  18.919  0.00  0.00    +0.001 A 
ATOM     28  CD2 TRP A   1     -22.784 -45.398  20.009  0.00  0.00    +0.013 A 
ENDBRANCH  18  19
ENDBRANCH  15  18
ENDBRANCH  11  15
ENDBRANCH  10  13
BRANCH  10  29
ATOM     29  CB  GLN A   2     -15.807 -43.415  20.274  0.00  0.00    +0.039 C 
BRANCH  29  30
ATOM     30  CG  GLN A   2     -14.639 -42.530  20.710  0.00  0.00    +0.087 C 
BRANCH  30  31
ATOM     31  CD  GLN A   2     -13.964 -41.874  19.521  0.00  0.00    +0.219 C 
ATOM     32  NE2 GLN A   2     -14.184 -40.564  19.337  0.00  0.00    -0.329 N 
ATOM     33 HE21 GLN A   2     -14.764 -40.033  20.018  0.00  0.00    +0.145 HD
ATOM     34 HE22 GLN A   2     -13.775 -40.079  18.513  0.00  0.00    +0.145 HD
ATOM     35  OE1 GLN A   2     -13.289 -42.544  18.749  0.00  0.00    -0.275 OA
ENDBRANCH  30  31
ENDBRANCH  29  30
ENDBRANCH  10  29
ENDBRANCH   6  10
ENDBRANCH   5   7
BRANCH   5  36
ATOM     36  CB  CYS A   3     -17.861 -41.298  25.303  0.00  0.00    +0.098 C 
ATOM     37  SG  CYS A   3     -19.501 -41.978  24.952  0.00  0.00    -0.080 S 
ENDBRANCH   5  36
ENDBRANCH   1   5
BRANCH   2  38
ATOM     38  CA  GLY A   4     -13.821 -39.757  25.582  0.00  0.00    +0.176 C 
BRANCH  38  39
ATOM     39  C   GLY A   4     -12.775 -40.161  24.555  0.00  0.00    +0.243 C 
ATOM     40  N   THR A   5     -11.931 -39.209  24.190  0.00  0.00    -0.295 N 
ATOM     41  H   THR A   5     -12.047 -38.243  24.558  0.00  0.00    +0.150 HD
ATOM     42  O   GLY A   4     -12.743 -41.293  24.086  0.00  0.00    -0.273 OA
BRANCH  40  43
ATOM     43  CA  THR A   5     -10.825 -39.516  23.262  0.00  0.00    +0.176 C 
BRANCH  43  44
ATOM     44  C   THR A   5      -9.675 -38.556  23.517  0.00  0.00    +0.243 C 
ATOM     45  O   THR A   5      -9.901 -37.370  23.798  0.00  0.00    -0.273 OA
ATOM     46  N   VAL A   6      -8.453 -39.080  23.476  0.00  0.00    -0.297 N 
ATOM     47  H   VAL A   6      -8.350 -40.099  23.293  0.00  0.00    +0.150 HD
BRANCH  46  48
ATOM     48  CA  VAL A   6      -7.233 -38.264  23.682  0.00  0.00    +0.149 C 
BRANCH  48  49
ATOM     49  C   VAL A   6      -6.284 -38.634  22.531  0.00  0.00    +0.241 C 
ATOM     50  O   VAL A   6      -6.021 -39.820  22.303  0.00  0.00    -0.273 OA
ATOM     51  N   GLN A   7      -5.796 -37.650  21.789  0.00  0.00    -0.298 N 
ATOM     52  H   GLN A   7      -5.897 -36.664  22.103  0.00  0.00    +0.150 HD
BRANCH  51  53
ATOM     53  CA  GLN A   7      -5.113 -37.951  20.525  0.00  0.00    +0.137 C 
BRANCH  53  54
ATOM     54  C   GLN A   7      -3.849 -37.083  20.456  0.00  0.00    +0.227 C 
ATOM     55  O   GLN A   7      -3.838 -35.970  20.983  0.00  0.00    -0.286 OA
ENDBRANCH  53  54
BRANCH  53  56
ATOM     56  CB  GLN A   7      -6.047 -37.660  19.323  0.00  0.00    +0.037 C 
BRANCH  56  57
ATOM     57  CG  GLN A   7      -7.491 -38.046  19.561  0.00  0.00    +0.087 C 
BRANCH  57  58
ATOM     58  CD  GLN A   7      -8.469 -37.567  18.486  0.00  0.00    +0.219 C 
ATOM     59  OE1 GLN A   7      -9.616 -38.076  18.425  0.00  0.00    -0.275 OA
ATOM     60  NE2 GLN A   7      -8.044 -36.651  17.629  0.00  0.00    -0.329 N 
ATOM     61 HE21 GLN A   7      -7.085 -36.259  17.720  0.00  0.00    +0.145 HD
ATOM     62 HE22 GLN A   7      -8.669 -36.324  16.865  0.00  0.00    +0.145 HD
ENDBRANCH  57  58
ENDBRANCH  56  57
ENDBRANCH  53  56
ENDBRANCH  51  53
ENDBRANCH  48  49
BRANCH  48  63
ATOM     63  CB  VAL A   6      -6.564 -38.567  25.051  0.00  0.00    +0.027 C 
ATOM     64  CG2 VAL A   6      -7.510 -38.241  26.204  0.00  0.00    +0.002 C 
ATOM     65  CG1 VAL A   6      -5.281 -37.758  25.221  0.00  0.00    +0.002 C 
ENDBRANCH  48  63
ENDBRANCH  46  48
ENDBRANCH  43  44
BRANCH  43  66
ATOM     66  CB  THR A   5     -11.228 -39.565  21.759  0.00  0.00    +0.137 C 
ATOM     67  CG2 THR A   5     -11.750 -38.191  21.251  0.00  0.00    +0.034 C 
BRANCH  66  68
ATOM     68  OG1 THR A   5     -10.102 -39.993  20.977  0.00  0.00    -0.382 OA
ATOM     69  HG1 THR A   5      -9.819 -40.894  21.274  0.00  0.00    +0.210 HD
ENDBRANCH  66  68
ENDBRANCH  43  66
ENDBRANCH  40  43
ENDBRANCH  38  39
ENDBRANCH   2  38
TORSDOF 26
REMARK  Name = ../refined-set-2016/4hwo/4hwo_pocket.pdb
REMARK  258 active torsions:
REMARK  status: ('A' for Active; 'I' for Inactive)
REMARK    1  A    between atoms: _1  and  _3
REMARK    2  A    between atoms: _3  and  _4
REMARK    3  A    between atoms: _6  and  _8
REMARK    4  A    between atoms: _8  and  _9
REMARK    5  A    between atoms: _8  and  _11
REMARK    6  A    between atoms: _14  and  _16
REMARK    7  A    between atoms: _16  and  _17
REMARK    8  A    between atoms: _16  and  _19
REMARK    9  A    between atoms: _19  and  _20
REMARK   10  A    between atoms: _25  and  _27
REMARK   11  A    between atoms: _27  and  _28
REMARK   12  A    between atoms: _27  and  _30
REMARK   13  A    between atoms: _30  and  _31
REMARK   14  A    between atoms: _36  and  _37
REMARK   15  A    between atoms: _40  and  _41
REMARK   16  A    between atoms: _46  and  _48
REMARK   17  A    between atoms: _48  and  _49
REMARK   18  A    between atoms: _48  and  _51
REMARK   19  A    between atoms: _51  and  _52
REMARK   20  A    between atoms: _52  and  _53
REMARK   21  A    between atoms: _55  and  _57
REMARK   22  A    between atoms: _57  and  _58
REMARK   23  A    between atoms: _57  and  _60
REMARK   24  A    between atoms: _60  and  _61
REMARK   25  A    between atoms: _66  and  _68
REMARK   26  A    between atoms: _68  and  _69
REMARK   27  A    between atoms: _68  and  _71
REMARK   28  A    between atoms: _71  and  _72
REMARK   29  A    between atoms: _72  and  ZN_632
REMARK   30  A    between atoms: _74  and  _75
REMARK   31  A    between atoms: _80  and  _82
REMARK   32  A    between atoms: _82  and  _83
REMARK   33  A    between atoms: _82  and  _85
REMARK   34  A    between atoms: _85  and  _86
REMARK   35  A    between atoms: _91  and  _93
REMARK   36  A    between atoms: _93  and  _94
REMARK   37  A    between atoms: _93  and  _96
REMARK   38  A    between atoms: _98  and  _100
REMARK   39  A    between atoms: _100  and  _101
REMARK   40  A    between atoms: _100  and  _103
REMARK   41  A    between atoms: _103  and  _104
REMARK   42  A    between atoms: _109  and  _111
REMARK   43  A    between atoms: _111  and  _112
REMARK   44  A    between atoms: _111  and  _114
REMARK   45  A    between atoms: _114  and  _115
REMARK   46  A    between atoms: _115  and  _116
REMARK   47  A    between atoms: _116  and  _117
REMARK   48  A    between atoms: _126  and  _128
REMARK   49  A    between atoms: _128  and  _129
REMARK   50  A    between atoms: _128  and  _131
REMARK   51  A    between atoms: _131  and  _132
REMARK   52  A    between atoms: _137  and  _139
REMARK   53  A    between atoms: _139  and  _140
REMARK   54  A    between atoms: _139  and  _142
REMARK   55  A    between atoms: _142  and  _143
REMARK   56  A    between atoms: _143  and  _144
REMARK   57  A    between atoms: _147  and  _149
REMARK   58  A    between atoms: _149  and  _150
REMARK   59  A    between atoms: _149  and  _152
REMARK   60  A    between atoms: _152  and  _153
REMARK   61  A    between atoms: _155  and  _157
REMARK   62  A    between atoms: _157  and  _158
REMARK   63  A    between atoms: _157  and  _160
REMARK   64  A    between atoms: _160  and  _161
REMARK   65  A    between atoms: _164  and  _166
REMARK   66  A    between atoms: _166  and  _167
REMARK   67  A    between atoms: _166  and  _169
REMARK   68  A    between atoms: _169  and  _170
REMARK   69  A    between atoms: _175  and  _177
REMARK   70  A    between atoms: _177  and  _178
REMARK   71  A    between atoms: _180  and  _182
REMARK   72  A    between atoms: _182  and  _183
REMARK   73  A    between atoms: _182  and  _185
REMARK   74  A    between atoms: _185  and  _186
REMARK   75  A    between atoms: _189  and  _191
REMARK   76  A    between atoms: _191  and  _192
REMARK   77  A    between atoms: _191  and  _194
REMARK   78  A    between atoms: _194  and  _195
REMARK   79  A    between atoms: _195  and  _196
REMARK   80  A    between atoms: _198  and  _200
REMARK   81  A    between atoms: _200  and  _201
REMARK   82  A    between atoms: _200  and  _203
REMARK   83  A    between atoms: _203  and  _204
REMARK   84  A    between atoms: _204  and  _205
REMARK   85  A    between atoms: _205  and  _206
REMARK   86  A    between atoms: _215  and  _217
REMARK   87  A    between atoms: _217  and  _218
REMARK   88  A    between atoms: _217  and  _220
REMARK   89  A    between atoms: _223  and  _225
REMARK   90  A    between atoms: _225  and  _226
REMARK   91  A    between atoms: _225  and  _228
REMARK   92  A    between atoms: _228  and  _229
REMARK   93  A    between atoms: _229  and  _230
REMARK   94  A    between atoms: _230  and  _231
REMARK   95  A    between atoms: _240  and  _242
REMARK   96  A    between atoms: _242  and  _243
REMARK   97  A    between atoms: _245  and  _247
REMARK   98  A    between atoms: _247  and  _248
REMARK   99  A    between atoms: _247  and  _250
REMARK  100  A    between atoms: _250  and  _251
REMARK  101  A    between atoms: _257  and  _259
REMARK  102  A    between atoms: _259  and  _260
REMARK  103  A    between atoms: _259  and  _262
REMARK  104  A    between atoms: _262  and  _263
REMARK  105  A    between atoms: _266  and  _268
REMARK  106  A    between atoms: _268  and  _269
REMARK  107  A    between atoms: _268  and  _271
REMARK  108  A    between atoms: _271  and  _272
REMARK  109  A    between atoms: _272  and  _273
REMARK  110  A    between atoms: _278  and  _280
REMARK  111  A    between atoms: _280  and  _281
REMARK  112  A    between atoms: _280  and  _283
REMARK  113  A    between atoms: _283  and  _284
REMARK  114  A    between atoms: _287  and  _289
REMARK  115  A    between atoms: _289  and  _290
REMARK  116  A    between atoms: _289  and  _292
REMARK  117  A    between atoms: _292  and  _293
REMARK  118  A    between atoms: _296  and  _298
REMARK  119  A    between atoms: _298  and  _299
REMARK  120  A    between atoms: _302  and  _304
REMARK  121  A    between atoms: _304  and  _305
REMARK  122  A    between atoms: _304  and  _307
REMARK  123  A    between atoms: _307  and  _308
REMARK  124  A    between atoms: _312  and  ZN_632
REMARK  125  A    between atoms: _313  and  _315
REMARK  126  A    between atoms: _315  and  _316
REMARK  127  A    between atoms: _315  and  _318
REMARK  128  A    between atoms: _318  and  _319
REMARK  129  A    between atoms: _322  and  _324
REMARK  130  A    between atoms: _324  and  _325
REMARK  131  A    between atoms: _324  and  _327
REMARK  132  A    between atoms: _327  and  _328
REMARK  133  A    between atoms: _330  and  _332
REMARK  134  A    between atoms: _332  and  _333
REMARK  135  A    between atoms: _332  and  _335
REMARK  136  A    between atoms: _335  and  _336
REMARK  137  A    between atoms: _336  and  _337
REMARK  138  A    between atoms: _340  and  _342
REMARK  139  A    between atoms: _342  and  _343
REMARK  140  A    between atoms: _345  and  _347
REMARK  141  A    between atoms: _347  and  _348
REMARK  142  A    between atoms: _351  and  _353
REMARK  143  A    between atoms: _353  and  _354
REMARK  144  A    between atoms: _353  and  _356
REMARK  145  A    between atoms: _356  and  _357
REMARK  146  A    between atoms: _363  and  _365
REMARK  147  A    between atoms: _365  and  _366
REMARK  148  A    between atoms: _365  and  _368
REMARK  149  A    between atoms: _368  and  _369
REMARK  150  A    between atoms: _374  and  _375
REMARK  151  A    between atoms: _377  and  _379
REMARK  152  A    between atoms: _379  and  _380
REMARK  153  A    between atoms: _379  and  _382
REMARK  154  A    between atoms: _382  and  _383
REMARK  155  A    between atoms: _383  and  _384
REMARK  156  A    between atoms: _384  and  _385
REMARK  157  A    between atoms: _385  and  _386
REMARK  158  A    between atoms: _390  and  _392
REMARK  159  A    between atoms: _392  and  _393
REMARK  160  A    between atoms: _392  and  _395
REMARK  161  A    between atoms: _395  and  _396
REMARK  162  A    between atoms: _399  and  _401
REMARK  163  A    between atoms: _401  and  _402
REMARK  164  A    between atoms: _401  and  _404
REMARK  165  A    between atoms: _404  and  _405
REMARK  166  A    between atoms: _405  and  _406
REMARK  167  A    between atoms: _409  and  _411
REMARK  168  A    between atoms: _411  and  _412
REMARK  169  A    between atoms: _411  and  _414
REMARK  170  A    between atoms: _414  and  _415
REMARK  171  A    between atoms: _425  and  _427
REMARK  172  A    between atoms: _427  and  _428
REMARK  173  A    between atoms: _427  and  _430
REMARK  174  A    between atoms: _430  and  _431
REMARK  175  A    between atoms: _431  and  _432
REMARK  176  A    between atoms: _437  and  _439
REMARK  177  A    between atoms: _439  and  _440
REMARK  178  A    between atoms: _439  and  _442
REMARK  179  A    between atoms: _444  and  _446
REMARK  180  A    between atoms: _446  and  _447
REMARK  181  A    between atoms: _449  and  _451
REMARK  182  A    between atoms: _451  and  _452
REMARK  183  A    between atoms: _451  and  _454
REMARK  184  A    between atoms: _454  and  _455
REMARK  185  A    between atoms: _458  and  _460
REMARK  186  A    between atoms: _460  and  _461
REMARK  187  A    between atoms: _460  and  _463
REMARK  188  A    between atoms: _466  and  _468
REMARK  189  A    between atoms: _468  and  _469
REMARK  190  A    between atoms: _468  and  _471
REMARK  191  A    between atoms: _471  and  _472
REMARK  192  A    between atoms: _472  and  _473
REMARK  193  A    between atoms: _478  and  _480
REMARK  194  A    between atoms: _480  and  _481
REMARK  195  A    between atoms: _480  and  _483
REMARK  196  A    between atoms: _483  and  _484
REMARK  197  A    between atoms: _487  and  _489
REMARK  198  A    between atoms: _489  and  _490
REMARK  199  A    between atoms: _489  and  _492
REMARK  200  A    between atoms: _492  and  _493
REMARK  201  A    between atoms: _496  and  _498
REMARK  202  A    between atoms: _498  and  _499
REMARK  203  A    between atoms: _498  and  _501
REMARK  204  A    between atoms: _501  and  _502
REMARK  205  A    between atoms: _502  and  _503
REMARK  206  A    between atoms: _505  and  _507
REMARK  207  A    between atoms: _507  and  _508
REMARK  208  A    between atoms: _507  and  _510
REMARK  209  A    between atoms: _510  and  _511
REMARK  210  A    between atoms: _514  and  _516
REMARK  211  A    between atoms: _516  and  _517
REMARK  212  A    between atoms: _516  and  _519
REMARK  213  A    between atoms: _519  and  _520
REMARK  214  A    between atoms: _521  and  ZN_632
REMARK  215  A    between atoms: _525  and  _527
REMARK  216  A    between atoms: _527  and  _528
REMARK  217  A    between atoms: _527  and  _530
REMARK  218  A    between atoms: _530  and  _531
REMARK  219  A    between atoms: _531  and  _532
REMARK  220  A    between atoms: _532  and  _533
REMARK  221  A    between atoms: _542  and  _544
REMARK  222  A    between atoms: _544  and  _545
REMARK  223  A    between atoms: _548  and  _550
REMARK  224  A    between atoms: _550  and  _551
REMARK  225  A    between atoms: _550  and  _553
REMARK  226  A    between atoms: _553  and  _554
REMARK  227  A    between atoms: _557  and  _559
REMARK  228  A    between atoms: _559  and  _560
REMARK  229  A    between atoms: _559  and  _562
REMARK  230  A    between atoms: _562  and  _563
REMARK  231  A    between atoms: _566  and  _568
REMARK  232  A    between atoms: _568  and  _569
REMARK  233  A    between atoms: _571  and  _573
REMARK  234  A    between atoms: _573  and  _574
REMARK  235  A    between atoms: _573  and  _576
REMARK  236  A    between atoms: _576  and  _577
REMARK  237  A    between atoms: _579  and  _581
REMARK  238  A    between atoms: _581  and  _582
REMARK  239  A    between atoms: _581  and  _584
REMARK  240  A    between atoms: _584  and  _585
REMARK  241  A    between atoms: _585  and  _586
REMARK  242  A    between atoms: _588  and  _590
REMARK  243  A    between atoms: _590  and  _591
REMARK  244  A    between atoms: _590  and  _593
REMARK  245  A    between atoms: _593  and  _594
REMARK  246  A    between atoms: _594  and  _595
REMARK  247  A    between atoms: _598  and  _600
REMARK  248  A    between atoms: _600  and  _601
REMARK  249  A    between atoms: _600  and  _603
REMARK  250  A    between atoms: _603  and  _604
REMARK  251  A    between atoms: _604  and  _605
REMARK  252  A    between atoms: _605  and  _606
REMARK  253  A    between atoms: _615  and  _617
REMARK  254  A    between atoms: _617  and  _618
REMARK  255  A    between atoms: _617  and  _620
REMARK  256  A    between atoms: _620  and  _621
REMARK  257  A    between atoms: _627  and  _629
REMARK  258  A    between atoms: _629  and  _630
REMARK                            x       y       z     vdW  Elec       q    Type
REMARK                         _______ _______ _______ _____ _____    ______ ____
ROOT
ATOM      1  CA  ASP A   1      -0.829 -34.859  16.689  0.00  0.00    +0.144 C 
ENDROOT
BRANCH   1   2
ATOM      2  N   ASP A   1      -0.904 -35.316  18.069  0.00  0.00    -0.239 NA
ATOM      3  H   ASP A   1      -0.742 -34.635  18.838  0.00  0.00    +0.142 HD
ENDBRANCH   1   2
BRANCH   1   4
ATOM      4  C   ASP A   1       0.496 -34.094  16.469  0.00  0.00    +0.225 C 
ATOM      5  O   ASP A   1       0.698 -33.012  17.021  0.00  0.00    -0.287 OA
ENDBRANCH   1   4
BRANCH   1   6
ATOM      6  CB  ASP A   1      -2.061 -33.970  16.444  0.00  0.00    +0.139 C 
BRANCH   6   7
ATOM      7  CG  ASP A   1      -2.117 -33.338  15.036  0.00  0.00    +0.367 C 
ATOM      8  OD2 ASP A   1      -3.127 -32.632  14.833  0.00  0.00    -0.246 OA
ATOM      9  OD1 ASP A   1      -1.232 -33.531  14.163  0.00  0.00    -0.246 OA
ENDBRANCH   6   7
ENDBRANCH   1   6
TORSDOF 4
REMARK  Name = ../refined-set-2016/4hwo/4hwo_pocket.pdb
REMARK  258 active torsions:
REMARK  status: ('A' for Active; 'I' for Inactive)
REMARK    1  A    between atoms: _1  and  _3
REMARK    2  A    between atoms: _3  and  _4
REMARK    3  A    between atoms: _6  and  _8
REMARK    4  A    between atoms: _8  and  _9
REMARK    5  A    between atoms: _8  and  _11
REMARK    6  A    between atoms: _14  and  _16
REMARK    7  A    between atoms: _16  and  _17
REMARK    8  A    between atoms: _16  and  _19
REMARK    9  A    between atoms: _19  and  _20
REMARK   10  A    between atoms: _25  and  _27
REMARK   11  A    between atoms: _27  and  _28
REMARK   12  A    between atoms: _27  and  _30
REMARK   13  A    between atoms: _30  and  _31
REMARK   14  A    between atoms: _36  and  _37
REMARK   15  A    between atoms: _40  and  _41
REMARK   16  A    between atoms: _46  and  _48
REMARK   17  A    between atoms: _48  and  _49
REMARK   18  A    between atoms: _48  and  _51
REMARK   19  A    between atoms: _51  and  _52
REMARK   20  A    between atoms: _52  and  _53
REMARK   21  A    between atoms: _55  and  _57
REMARK   22  A    between atoms: _57  and  _58
REMARK   23  A    between atoms: _57  and  _60
REMARK   24  A    between atoms: _60  and  _61
REMARK   25  A    between atoms: _66  and  _68
REMARK   26  A    between atoms: _68  and  _69
REMARK   27  A    between atoms: _68  and  _71
REMARK   28  A    between atoms: _71  and  _72
REMARK   29  A    between atoms: _72  and  ZN_632
REMARK   30  A    between atoms: _74  and  _75
REMARK   31  A    between atoms: _80  and  _82
REMARK   32  A    between atoms: _82  and  _83
REMARK   33  A    between atoms: _82  and  _85
REMARK   34  A    between atoms: _85  and  _86
REMARK   35  A    between atoms: _91  and  _93
REMARK   36  A    between atoms: _93  and  _94
REMARK   37  A    between atoms: _93  and  _96
REMARK   38  A    between atoms: _98  and  _100
REMARK   39  A    between atoms: _100  and  _101
REMARK   40  A    between atoms: _100  and  _103
REMARK   41  A    between atoms: _103  and  _104
REMARK   42  A    between atoms: _109  and  _111
REMARK   43  A    between atoms: _111  and  _112
REMARK   44  A    between atoms: _111  and  _114
REMARK   45  A    between atoms: _114  and  _115
REMARK   46  A    between atoms: _115  and  _116
REMARK   47  A    between atoms: _116  and  _117
REMARK   48  A    between atoms: _126  and  _128
REMARK   49  A    between atoms: _128  and  _129
REMARK   50  A    between atoms: _128  and  _131
REMARK   51  A    between atoms: _131  and  _132
REMARK   52  A    between atoms: _137  and  _139
REMARK   53  A    between atoms: _139  and  _140
REMARK   54  A    between atoms: _139  and  _142
REMARK   55  A    between atoms: _142  and  _143
REMARK   56  A    between atoms: _143  and  _144
REMARK   57  A    between atoms: _147  and  _149
REMARK   58  A    between atoms: _149  and  _150
REMARK   59  A    between atoms: _149  and  _152
REMARK   60  A    between atoms: _152  and  _153
REMARK   61  A    between atoms: _155  and  _157
REMARK   62  A    between atoms: _157  and  _158
REMARK   63  A    between atoms: _157  and  _160
REMARK   64  A    between atoms: _160  and  _161
REMARK   65  A    between atoms: _164  and  _166
REMARK   66  A    between atoms: _166  and  _167
REMARK   67  A    between atoms: _166  and  _169
REMARK   68  A    between atoms: _169  and  _170
REMARK   69  A    between atoms: _175  and  _177
REMARK   70  A    between atoms: _177  and  _178
REMARK   71  A    between atoms: _180  and  _182
REMARK   72  A    between atoms: _182  and  _183
REMARK   73  A    between atoms: _182  and  _185
REMARK   74  A    between atoms: _185  and  _186
REMARK   75  A    between atoms: _189  and  _191
REMARK   76  A    between atoms: _191  and  _192
REMARK   77  A    between atoms: _191  and  _194
REMARK   78  A    between atoms: _194  and  _195
REMARK   79  A    between atoms: _195  and  _196
REMARK   80  A    between atoms: _198  and  _200
REMARK   81  A    between atoms: _200  and  _201
REMARK   82  A    between atoms: _200  and  _203
REMARK   83  A    between atoms: _203  and  _204
REMARK   84  A    between atoms: _204  and  _205
REMARK   85  A    between atoms: _205  and  _206
REMARK   86  A    between atoms: _215  and  _217
REMARK   87  A    between atoms: _217  and  _218
REMARK   88  A    between atoms: _217  and  _220
REMARK   89  A    between atoms: _223  and  _225
REMARK   90  A    between atoms: _225  and  _226
REMARK   91  A    between atoms: _225  and  _228
REMARK   92  A    between atoms: _228  and  _229
REMARK   93  A    between atoms: _229  and  _230
REMARK   94  A    between atoms: _230  and  _231
REMARK   95  A    between atoms: _240  and  _242
REMARK   96  A    between atoms: _242  and  _243
REMARK   97  A    between atoms: _245  and  _247
REMARK   98  A    between atoms: _247  and  _248
REMARK   99  A    between atoms: _247  and  _250
REMARK  100  A    between atoms: _250  and  _251
REMARK  101  A    between atoms: _257  and  _259
REMARK  102  A    between atoms: _259  and  _260
REMARK  103  A    between atoms: _259  and  _262
REMARK  104  A    between atoms: _262  and  _263
REMARK  105  A    between atoms: _266  and  _268
REMARK  106  A    between atoms: _268  and  _269
REMARK  107  A    between atoms: _268  and  _271
REMARK  108  A    between atoms: _271  and  _272
REMARK  109  A    between atoms: _272  and  _273
REMARK  110  A    between atoms: _278  and  _280
REMARK  111  A    between atoms: _280  and  _281
REMARK  112  A    between atoms: _280  and  _283
REMARK  113  A    between atoms: _283  and  _284
REMARK  114  A    between atoms: _287  and  _289
REMARK  115  A    between atoms: _289  and  _290
REMARK  116  A    between atoms: _289  and  _292
REMARK  117  A    between atoms: _292  and  _293
REMARK  118  A    between atoms: _296  and  _298
REMARK  119  A    between atoms: _298  and  _299
REMARK  120  A    between atoms: _302  and  _304
REMARK  121  A    between atoms: _304  and  _305
REMARK  122  A    between atoms: _304  and  _307
REMARK  123  A    between atoms: _307  and  _308
REMARK  124  A    between atoms: _312  and  ZN_632
REMARK  125  A    between atoms: _313  and  _315
REMARK  126  A    between atoms: _315  and  _316
REMARK  127  A    between atoms: _315  and  _318
REMARK  128  A    between atoms: _318  and  _319
REMARK  129  A    between atoms: _322  and  _324
REMARK  130  A    between atoms: _324  and  _325
REMARK  131  A    between atoms: _324  and  _327
REMARK  132  A    between atoms: _327  and  _328
REMARK  133  A    between atoms: _330  and  _332
REMARK  134  A    between atoms: _332  and  _333
REMARK  135  A    between atoms: _332  and  _335
REMARK  136  A    between atoms: _335  and  _336
REMARK  137  A    between atoms: _336  and  _337
REMARK  138  A    between atoms: _340  and  _342
REMARK  139  A    between atoms: _342  and  _343
REMARK  140  A    between atoms: _345  and  _347
REMARK  141  A    between atoms: _347  and  _348
REMARK  142  A    between atoms: _351  and  _353
REMARK  143  A    between atoms: _353  and  _354
REMARK  144  A    between atoms: _353  and  _356
REMARK  145  A    between atoms: _356  and  _357
REMARK  146  A    between atoms: _363  and  _365
REMARK  147  A    between atoms: _365  and  _366
REMARK  148  A    between atoms: _365  and  _368
REMARK  149  A    between atoms: _368  and  _369
REMARK  150  A    between atoms: _374  and  _375
REMARK  151  A    between atoms: _377  and  _379
REMARK  152  A    between atoms: _379  and  _380
REMARK  153  A    between atoms: _379  and  _382
REMARK  154  A    between atoms: _382  and  _383
REMARK  155  A    between atoms: _383  and  _384
REMARK  156  A    between atoms: _384  and  _385
REMARK  157  A    between atoms: _385  and  _386
REMARK  158  A    between atoms: _390  and  _392
REMARK  159  A    between atoms: _392  and  _393
REMARK  160  A    between atoms: _392  and  _395
REMARK  161  A    between atoms: _395  and  _396
REMARK  162  A    between atoms: _399  and  _401
REMARK  163  A    between atoms: _401  and  _402
REMARK  164  A    between atoms: _401  and  _404
REMARK  165  A    between atoms: _404  and  _405
REMARK  166  A    between atoms: _405  and  _406
REMARK  167  A    between atoms: _409  and  _411
REMARK  168  A    between atoms: _411  and  _412
REMARK  169  A    between atoms: _411  and  _414
REMARK  170  A    between atoms: _414  and  _415
REMARK  171  A    between atoms: _425  and  _427
REMARK  172  A    between atoms: _427  and  _428
REMARK  173  A    between atoms: _427  and  _430
REMARK  174  A    between atoms: _430  and  _431
REMARK  175  A    between atoms: _431  and  _432
REMARK  176  A    between atoms: _437  and  _439
REMARK  177  A    between atoms: _439  and  _440
REMARK  178  A    between atoms: _439  and  _442
REMARK  179  A    between atoms: _444  and  _446
REMARK  180  A    between atoms: _446  and  _447
REMARK  181  A    between atoms: _449  and  _451
REMARK  182  A    between atoms: _451  and  _452
REMARK  183  A    between atoms: _451  and  _454
REMARK  184  A    between atoms: _454  and  _455
REMARK  185  A    between atoms: _458  and  _460
REMARK  186  A    between atoms: _460  and  _461
REMARK  187  A    between atoms: _460  and  _463
REMARK  188  A    between atoms: _466  and  _468
REMARK  189  A    between atoms: _468  and  _469
REMARK  190  A    between atoms: _468  and  _471
REMARK  191  A    between atoms: _471  and  _472
REMARK  192  A    between atoms: _472  and  _473
REMARK  193  A    between atoms: _478  and  _480
REMARK  194  A    between atoms: _480  and  _481
REMARK  195  A    between atoms: _480  and  _483
REMARK  196  A    between atoms: _483  and  _484
REMARK  197  A    between atoms: _487  and  _489
REMARK  198  A    between atoms: _489  and  _490
REMARK  199  A    between atoms: _489  and  _492
REMARK  200  A    between atoms: _492  and  _493
REMARK  201  A    between atoms: _496  and  _498
REMARK  202  A    between atoms: _498  and  _499
REMARK  203  A    between atoms: _498  and  _501
REMARK  204  A    between atoms: _501  and  _502
REMARK  205  A    between atoms: _502  and  _503
REMARK  206  A    between atoms: _505  and  _507
REMARK  207  A    between atoms: _507  and  _508
REMARK  208  A    between atoms: _507  and  _510
REMARK  209  A    between atoms: _510  and  _511
REMARK  210  A    between atoms: _514  and  _516
REMARK  211  A    between atoms: _516  and  _517
REMARK  212  A    between atoms: _516  and  _519
REMARK  213  A    between atoms: _519  and  _520
REMARK  214  A    between atoms: _521  and  ZN_632
REMARK  215  A    between atoms: _525  and  _527
REMARK  216  A    between atoms: _527  and  _528
REMARK  217  A    between atoms: _527  and  _530
REMARK  218  A    between atoms: _530  and  _531
REMARK  219  A    between atoms: _531  and  _532
REMARK  220  A    between atoms: _532  and  _533
REMARK  221  A    between atoms: _542  and  _544
REMARK  222  A    between atoms: _544  and  _545
REMARK  223  A    between atoms: _548  and  _550
REMARK  224  A    between atoms: _550  and  _551
REMARK  225  A    between atoms: _550  and  _553
REMARK  226  A    between atoms: _553  and  _554
REMARK  227  A    between atoms: _557  and  _559
REMARK  228  A    between atoms: _559  and  _560
REMARK  229  A    between atoms: _559  and  _562
REMARK  230  A    between atoms: _562  and  _563
REMARK  231  A    between atoms: _566  and  _568
REMARK  232  A    between atoms: _568  and  _569
REMARK  233  A    between atoms: _571  and  _573
REMARK  234  A    between atoms: _573  and  _574
REMARK  235  A    between atoms: _573  and  _576
REMARK  236  A    between atoms: _576  and  _577
REMARK  237  A    between atoms: _579  and  _581
REMARK  238  A    between atoms: _581  and  _582
REMARK  239  A    between atoms: _581  and  _584
REMARK  240  A    between atoms: _584  and  _585
REMARK  241  A    between atoms: _585  and  _586
REMARK  242  A    between atoms: _588  and  _590
REMARK  243  A    between atoms: _590  and  _591
REMARK  244  A    between atoms: _590  and  _593
REMARK  245  A    between atoms: _593  and  _594
REMARK  246  A    between atoms: _594  and  _595
REMARK  247  A    between atoms: _598  and  _600
REMARK  248  A    between atoms: _600  and  _601
REMARK  249  A    between atoms: _600  and  _603
REMARK  250  A    between atoms: _603  and  _604
REMARK  251  A    between atoms: _604  and  _605
REMARK  252  A    between atoms: _605  and  _606
REMARK  253  A    between atoms: _615  and  _617
REMARK  254  A    between atoms: _617  and  _618
REMARK  255  A    between atoms: _617  and  _620
REMARK  256  A    between atoms: _620  and  _621
REMARK  257  A    between atoms: _627  and  _629
REMARK  258  A    between atoms: _629  and  _630
REMARK                            x       y       z     vdW  Elec       q    Type
REMARK                         _______ _______ _______ _____ _____    ______ ____
ROOT
ATOM      1  CA  LEU A   1      -1.530 -30.505  11.782  0.00  0.00    +0.133 C 
ENDROOT
BRANCH   1   2
ATOM      2  N   LEU A   1      -0.691 -31.677  12.160  0.00  0.00    -0.239 NA
ATOM      3  H   LEU A   1      -1.001 -32.331  12.907  0.00  0.00    +0.142 HD
ENDBRANCH   1   2
BRANCH   1   4
ATOM      4  C   LEU A   1      -0.846 -29.149  12.051  0.00  0.00    +0.224 C 
ATOM      5  O   LEU A   1      -0.888 -28.269  11.193  0.00  0.00    -0.287 OA
ENDBRANCH   1   4
BRANCH   1   6
ATOM      6  CB  LEU A   1      -2.912 -30.546  12.435  0.00  0.00    +0.025 C 
BRANCH   6   7
ATOM      7  CG  LEU A   1      -3.810 -31.697  11.953  0.00  0.00    +0.002 C 
ATOM      8  CD2 LEU A   1      -5.236 -31.504  12.485  0.00  0.00    +0.000 C 
ATOM      9  CD1 LEU A   1      -3.813 -31.931  10.432  0.00  0.00    +0.000 C 
ENDBRANCH   6   7
ENDBRANCH   1   6
TORSDOF 4
REMARK  Name = ../refined-set-2016/4hwo/4hwo_pocket.pdb
REMARK  258 active torsions:
REMARK  status: ('A' for Active; 'I' for Inactive)
REMARK    1  A    between atoms: _1  and  _3
REMARK    2  A    between atoms: _3  and  _4
REMARK    3  A    between atoms: _6  and  _8
REMARK    4  A    between atoms: _8  and  _9
REMARK    5  A    between atoms: _8  and  _11
REMARK    6  A    between atoms: _14  and  _16
REMARK    7  A    between atoms: _16  and  _17
REMARK    8  A    between atoms: _16  and  _19
REMARK    9  A    between atoms: _19  and  _20
REMARK   10  A    between atoms: _25  and  _27
REMARK   11  A    between atoms: _27  and  _28
REMARK   12  A    between atoms: _27  and  _30
REMARK   13  A    between atoms: _30  and  _31
REMARK   14  A    between atoms: _36  and  _37
REMARK   15  A    between atoms: _40  and  _41
REMARK   16  A    between atoms: _46  and  _48
REMARK   17  A    between atoms: _48  and  _49
REMARK   18  A    between atoms: _48  and  _51
REMARK   19  A    between atoms: _51  and  _52
REMARK   20  A    between atoms: _52  and  _53
REMARK   21  A    between atoms: _55  and  _57
REMARK   22  A    between atoms: _57  and  _58
REMARK   23  A    between atoms: _57  and  _60
REMARK   24  A    between atoms: _60  and  _61
REMARK   25  A    between atoms: _66  and  _68
REMARK   26  A    between atoms: _68  and  _69
REMARK   27  A    between atoms: _68  and  _71
REMARK   28  A    between atoms: _71  and  _72
REMARK   29  A    between atoms: _72  and  ZN_632
REMARK   30  A    between atoms: _74  and  _75
REMARK   31  A    between atoms: _80  and  _82
REMARK   32  A    between atoms: _82  and  _83
REMARK   33  A    between atoms: _82  and  _85
REMARK   34  A    between atoms: _85  and  _86
REMARK   35  A    between atoms: _91  and  _93
REMARK   36  A    between atoms: _93  and  _94
REMARK   37  A    between atoms: _93  and  _96
REMARK   38  A    between atoms: _98  and  _100
REMARK   39  A    between atoms: _100  and  _101
REMARK   40  A    between atoms: _100  and  _103
REMARK   41  A    between atoms: _103  and  _104
REMARK   42  A    between atoms: _109  and  _111
REMARK   43  A    between atoms: _111  and  _112
REMARK   44  A    between atoms: _111  and  _114
REMARK   45  A    between atoms: _114  and  _115
REMARK   46  A    between atoms: _115  and  _116
REMARK   47  A    between atoms: _116  and  _117
REMARK   48  A    between atoms: _126  and  _128
REMARK   49  A    between atoms: _128  and  _129
REMARK   50  A    between atoms: _128  and  _131
REMARK   51  A    between atoms: _131  and  _132
REMARK   52  A    between atoms: _137  and  _139
REMARK   53  A    between atoms: _139  and  _140
REMARK   54  A    between atoms: _139  and  _142
REMARK   55  A    between atoms: _142  and  _143
REMARK   56  A    between atoms: _143  and  _144
REMARK   57  A    between atoms: _147  and  _149
REMARK   58  A    between atoms: _149  and  _150
REMARK   59  A    between atoms: _149  and  _152
REMARK   60  A    between atoms: _152  and  _153
REMARK   61  A    between atoms: _155  and  _157
REMARK   62  A    between atoms: _157  and  _158
REMARK   63  A    between atoms: _157  and  _160
REMARK   64  A    between atoms: _160  and  _161
REMARK   65  A    between atoms: _164  and  _166
REMARK   66  A    between atoms: _166  and  _167
REMARK   67  A    between atoms: _166  and  _169
REMARK   68  A    between atoms: _169  and  _170
REMARK   69  A    between atoms: _175  and  _177
REMARK   70  A    between atoms: _177  and  _178
REMARK   71  A    between atoms: _180  and  _182
REMARK   72  A    between atoms: _182  and  _183
REMARK   73  A    between atoms: _182  and  _185
REMARK   74  A    between atoms: _185  and  _186
REMARK   75  A    between atoms: _189  and  _191
REMARK   76  A    between atoms: _191  and  _192
REMARK   77  A    between atoms: _191  and  _194
REMARK   78  A    between atoms: _194  and  _195
REMARK   79  A    between atoms: _195  and  _196
REMARK   80  A    between atoms: _198  and  _200
REMARK   81  A    between atoms: _200  and  _201
REMARK   82  A    between atoms: _200  and  _203
REMARK   83  A    between atoms: _203  and  _204
REMARK   84  A    between atoms: _204  and  _205
REMARK   85  A    between atoms: _205  and  _206
REMARK   86  A    between atoms: _215  and  _217
REMARK   87  A    between atoms: _217  and  _218
REMARK   88  A    between atoms: _217  and  _220
REMARK   89  A    between atoms: _223  and  _225
REMARK   90  A    between atoms: _225  and  _226
REMARK   91  A    between atoms: _225  and  _228
REMARK   92  A    between atoms: _228  and  _229
REMARK   93  A    between atoms: _229  and  _230
REMARK   94  A    between atoms: _230  and  _231
REMARK   95  A    between atoms: _240  and  _242
REMARK   96  A    between atoms: _242  and  _243
REMARK   97  A    between atoms: _245  and  _247
REMARK   98  A    between atoms: _247  and  _248
REMARK   99  A    between atoms: _247  and  _250
REMARK  100  A    between atoms: _250  and  _251
REMARK  101  A    between atoms: _257  and  _259
REMARK  102  A    between atoms: _259  and  _260
REMARK  103  A    between atoms: _259  and  _262
REMARK  104  A    between atoms: _262  and  _263
REMARK  105  A    between atoms: _266  and  _268
REMARK  106  A    between atoms: _268  and  _269
REMARK  107  A    between atoms: _268  and  _271
REMARK  108  A    between atoms: _271  and  _272
REMARK  109  A    between atoms: _272  and  _273
REMARK  110  A    between atoms: _278  and  _280
REMARK  111  A    between atoms: _280  and  _281
REMARK  112  A    between atoms: _280  and  _283
REMARK  113  A    between atoms: _283  and  _284
REMARK  114  A    between atoms: _287  and  _289
REMARK  115  A    between atoms: _289  and  _290
REMARK  116  A    between atoms: _289  and  _292
REMARK  117  A    between atoms: _292  and  _293
REMARK  118  A    between atoms: _296  and  _298
REMARK  119  A    between atoms: _298  and  _299
REMARK  120  A    between atoms: _302  and  _304
REMARK  121  A    between atoms: _304  and  _305
REMARK  122  A    between atoms: _304  and  _307
REMARK  123  A    between atoms: _307  and  _308
REMARK  124  A    between atoms: _312  and  ZN_632
REMARK  125  A    between atoms: _313  and  _315
REMARK  126  A    between atoms: _315  and  _316
REMARK  127  A    between atoms: _315  and  _318
REMARK  128  A    between atoms: _318  and  _319
REMARK  129  A    between atoms: _322  and  _324
REMARK  130  A    between atoms: _324  and  _325
REMARK  131  A    between atoms: _324  and  _327
REMARK  132  A    between atoms: _327  and  _328
REMARK  133  A    between atoms: _330  and  _332
REMARK  134  A    between atoms: _332  and  _333
REMARK  135  A    between atoms: _332  and  _335
REMARK  136  A    between atoms: _335  and  _336
REMARK  137  A    between atoms: _336  and  _337
REMARK  138  A    between atoms: _340  and  _342
REMARK  139  A    between atoms: _342  and  _343
REMARK  140  A    between atoms: _345  and  _347
REMARK  141  A    between atoms: _347  and  _348
REMARK  142  A    between atoms: _351  and  _353
REMARK  143  A    between atoms: _353  and  _354
REMARK  144  A    between atoms: _353  and  _356
REMARK  145  A    between atoms: _356  and  _357
REMARK  146  A    between atoms: _363  and  _365
REMARK  147  A    between atoms: _365  and  _366
REMARK  148  A    between atoms: _365  and  _368
REMARK  149  A    between atoms: _368  and  _369
REMARK  150  A    between atoms: _374  and  _375
REMARK  151  A    between atoms: _377  and  _379
REMARK  152  A    between atoms: _379  and  _380
REMARK  153  A    between atoms: _379  and  _382
REMARK  154  A    between atoms: _382  and  _383
REMARK  155  A    between atoms: _383  and  _384
REMARK  156  A    between atoms: _384  and  _385
REMARK  157  A    between atoms: _385  and  _386
REMARK  158  A    between atoms: _390  and  _392
REMARK  159  A    between atoms: _392  and  _393
REMARK  160  A    between atoms: _392  and  _395
REMARK  161  A    between atoms: _395  and  _396
REMARK  162  A    between atoms: _399  and  _401
REMARK  163  A    between atoms: _401  and  _402
REMARK  164  A    between atoms: _401  and  _404
REMARK  165  A    between atoms: _404  and  _405
REMARK  166  A    between atoms: _405  and  _406
REMARK  167  A    between atoms: _409  and  _411
REMARK  168  A    between atoms: _411  and  _412
REMARK  169  A    between atoms: _411  and  _414
REMARK  170  A    between atoms: _414  and  _415
REMARK  171  A    between atoms: _425  and  _427
REMARK  172  A    between atoms: _427  and  _428
REMARK  173  A    between atoms: _427  and  _430
REMARK  174  A    between atoms: _430  and  _431
REMARK  175  A    between atoms: _431  and  _432
REMARK  176  A    between atoms: _437  and  _439
REMARK  177  A    between atoms: _439  and  _440
REMARK  178  A    between atoms: _439  and  _442
REMARK  179  A    between atoms: _444  and  _446
REMARK  180  A    between atoms: _446  and  _447
REMARK  181  A    between atoms: _449  and  _451
REMARK  182  A    between atoms: _451  and  _452
REMARK  183  A    between atoms: _451  and  _454
REMARK  184  A    between atoms: _454  and  _455
REMARK  185  A    between atoms: _458  and  _460
REMARK  186  A    between atoms: _460  and  _461
REMARK  187  A    between atoms: _460  and  _463
REMARK  188  A    between atoms: _466  and  _468
REMARK  189  A    between atoms: _468  and  _469
REMARK  190  A    between atoms: _468  and  _471
REMARK  191  A    between atoms: _471  and  _472
REMARK  192  A    between atoms: _472  and  _473
REMARK  193  A    between atoms: _478  and  _480
REMARK  194  A    between atoms: _480  and  _481
REMARK  195  A    between atoms: _480  and  _483
REMARK  196  A    between atoms: _483  and  _484
REMARK  197  A    between atoms: _487  and  _489
REMARK  198  A    between atoms: _489  and  _490
REMARK  199  A    between atoms: _489  and  _492
REMARK  200  A    between atoms: _492  and  _493
REMARK  201  A    between atoms: _496  and  _498
REMARK  202  A    between atoms: _498  and  _499
REMARK  203  A    between atoms: _498  and  _501
REMARK  204  A    between atoms: _501  and  _502
REMARK  205  A    between atoms: _502  and  _503
REMARK  206  A    between atoms: _505  and  _507
REMARK  207  A    between atoms: _507  and  _508
REMARK  208  A    between atoms: _507  and  _510
REMARK  209  A    between atoms: _510  and  _511
REMARK  210  A    between atoms: _514  and  _516
REMARK  211  A    between atoms: _516  and  _517
REMARK  212  A    between atoms: _516  and  _519
REMARK  213  A    between atoms: _519  and  _520
REMARK  214  A    between atoms: _521  and  ZN_632
REMARK  215  A    between atoms: _525  and  _527
REMARK  216  A    between atoms: _527  and  _528
REMARK  217  A    between atoms: _527  and  _530
REMARK  218  A    between atoms: _530  and  _531
REMARK  219  A    between atoms: _531  and  _532
REMARK  220  A    between atoms: _532  and  _533
REMARK  221  A    between atoms: _542  and  _544
REMARK  222  A    between atoms: _544  and  _545
REMARK  223  A    between atoms: _548  and  _550
REMARK  224  A    between atoms: _550  and  _551
REMARK  225  A    between atoms: _550  and  _553
REMARK  226  A    between atoms: _553  and  _554
REMARK  227  A    between atoms: _557  and  _559
REMARK  228  A    between atoms: _559  and  _560
REMARK  229  A    between atoms: _559  and  _562
REMARK  230  A    between atoms: _562  and  _563
REMARK  231  A    between atoms: _566  and  _568
REMARK  232  A    between atoms: _568  and  _569
REMARK  233  A    between atoms: _571  and  _573
REMARK  234  A    between atoms: _573  and  _574
REMARK  235  A    between atoms: _573  and  _576
REMARK  236  A    between atoms: _576  and  _577
REMARK  237  A    between atoms: _579  and  _581
REMARK  238  A    between atoms: _581  and  _582
REMARK  239  A    between atoms: _581  and  _584
REMARK  240  A    between atoms: _584  and  _585
REMARK  241  A    between atoms: _585  and  _586
REMARK  242  A    between atoms: _588  and  _590
REMARK  243  A    between atoms: _590  and  _591
REMARK  244  A    between atoms: _590  and  _593
REMARK  245  A    between atoms: _593  and  _594
REMARK  246  A    between atoms: _594  and  _595
REMARK  247  A    between atoms: _598  and  _600
REMARK  248  A    between atoms: _600  and  _601
REMARK  249  A    between atoms: _600  and  _603
REMARK  250  A    between atoms: _603  and  _604
REMARK  251  A    between atoms: _604  and  _605
REMARK  252  A    between atoms: _605  and  _606
REMARK  253  A    between atoms: _615  and  _617
REMARK  254  A    between atoms: _617  and  _618
REMARK  255  A    between atoms: _617  and  _620
REMARK  256  A    between atoms: _620  and  _621
REMARK  257  A    between atoms: _627  and  _629
REMARK  258  A    between atoms: _629  and  _630
REMARK                            x       y       z     vdW  Elec       q    Type
REMARK                         _______ _______ _______ _____ _____    ______ ____
ROOT
ATOM      1  CA  GLY A   1     -28.137 -40.464  24.585  0.00  0.00    +0.156 C 
ENDROOT
BRANCH   1   2
ATOM      2  N   GLY A   1     -27.486 -39.203  24.979  0.00  0.00    -0.238 NA
ATOM      3  H   GLY A   1     -26.881 -38.698  24.300  0.00  0.00    +0.142 HD
ENDBRANCH   1   2
BRANCH   1   4
ATOM      4  C   GLY A   1     -27.682 -41.593  25.528  0.00  0.00    +0.226 C 
ATOM      5  O   GLY A   1     -28.501 -42.384  25.993  0.00  0.00    -0.287 OA
ENDBRANCH   1   4
TORSDOF 2
REMARK  Name = ../refined-set-2016/4hwo/4hwo_pocket.pdb
REMARK  258 active torsions:
REMARK  status: ('A' for Active; 'I' for Inactive)
REMARK    1  A    between atoms: _1  and  _3
REMARK    2  A    between atoms: _3  and  _4
REMARK    3  A    between atoms: _6  and  _8
REMARK    4  A    between atoms: _8  and  _9
REMARK    5  A    between atoms: _8  and  _11
REMARK    6  A    between atoms: _14  and  _16
REMARK    7  A    between atoms: _16  and  _17
REMARK    8  A    between atoms: _16  and  _19
REMARK    9  A    between atoms: _19  and  _20
REMARK   10  A    between atoms: _25  and  _27
REMARK   11  A    between atoms: _27  and  _28
REMARK   12  A    between atoms: _27  and  _30
REMARK   13  A    between atoms: _30  and  _31
REMARK   14  A    between atoms: _36  and  _37
REMARK   15  A    between atoms: _40  and  _41
REMARK   16  A    between atoms: _46  and  _48
REMARK   17  A    between atoms: _48  and  _49
REMARK   18  A    between atoms: _48  and  _51
REMARK   19  A    between atoms: _51  and  _52
REMARK   20  A    between atoms: _52  and  _53
REMARK   21  A    between atoms: _55  and  _57
REMARK   22  A    between atoms: _57  and  _58
REMARK   23  A    between atoms: _57  and  _60
REMARK   24  A    between atoms: _60  and  _61
REMARK   25  A    between atoms: _66  and  _68
REMARK   26  A    between atoms: _68  and  _69
REMARK   27  A    between atoms: _68  and  _71
REMARK   28  A    between atoms: _71  and  _72
REMARK   29  A    between atoms: _72  and  ZN_632
REMARK   30  A    between atoms: _74  and  _75
REMARK   31  A    between atoms: _80  and  _82
REMARK   32  A    between atoms: _82  and  _83
REMARK   33  A    between atoms: _82  and  _85
REMARK   34  A    between atoms: _85  and  _86
REMARK   35  A    between atoms: _91  and  _93
REMARK   36  A    between atoms: _93  and  _94
REMARK   37  A    between atoms: _93  and  _96
REMARK   38  A    between atoms: _98  and  _100
REMARK   39  A    between atoms: _100  and  _101
REMARK   40  A    between atoms: _100  and  _103
REMARK   41  A    between atoms: _103  and  _104
REMARK   42  A    between atoms: _109  and  _111
REMARK   43  A    between atoms: _111  and  _112
REMARK   44  A    between atoms: _111  and  _114
REMARK   45  A    between atoms: _114  and  _115
REMARK   46  A    between atoms: _115  and  _116
REMARK   47  A    between atoms: _116  and  _117
REMARK   48  A    between atoms: _126  and  _128
REMARK   49  A    between atoms: _128  and  _129
REMARK   50  A    between atoms: _128  and  _131
REMARK   51  A    between atoms: _131  and  _132
REMARK   52  A    between atoms: _137  and  _139
REMARK   53  A    between atoms: _139  and  _140
REMARK   54  A    between atoms: _139  and  _142
REMARK   55  A    between atoms: _142  and  _143
REMARK   56  A    between atoms: _143  and  _144
REMARK   57  A    between atoms: _147  and  _149
REMARK   58  A    between atoms: _149  and  _150
REMARK   59  A    between atoms: _149  and  _152
REMARK   60  A    between atoms: _152  and  _153
REMARK   61  A    between atoms: _155  and  _157
REMARK   62  A    between atoms: _157  and  _158
REMARK   63  A    between atoms: _157  and  _160
REMARK   64  A    between atoms: _160  and  _161
REMARK   65  A    between atoms: _164  and  _166
REMARK   66  A    between atoms: _166  and  _167
REMARK   67  A    between atoms: _166  and  _169
REMARK   68  A    between atoms: _169  and  _170
REMARK   69  A    between atoms: _175  and  _177
REMARK   70  A    between atoms: _177  and  _178
REMARK   71  A    between atoms: _180  and  _182
REMARK   72  A    between atoms: _182  and  _183
REMARK   73  A    between atoms: _182  and  _185
REMARK   74  A    between atoms: _185  and  _186
REMARK   75  A    between atoms: _189  and  _191
REMARK   76  A    between atoms: _191  and  _192
REMARK   77  A    between atoms: _191  and  _194
REMARK   78  A    between atoms: _194  and  _195
REMARK   79  A    between atoms: _195  and  _196
REMARK   80  A    between atoms: _198  and  _200
REMARK   81  A    between atoms: _200  and  _201
REMARK   82  A    between atoms: _200  and  _203
REMARK   83  A    between atoms: _203  and  _204
REMARK   84  A    between atoms: _204  and  _205
REMARK   85  A    between atoms: _205  and  _206
REMARK   86  A    between atoms: _215  and  _217
REMARK   87  A    between atoms: _217  and  _218
REMARK   88  A    between atoms: _217  and  _220
REMARK   89  A    between atoms: _223  and  _225
REMARK   90  A    between atoms: _225  and  _226
REMARK   91  A    between atoms: _225  and  _228
REMARK   92  A    between atoms: _228  and  _229
REMARK   93  A    between atoms: _229  and  _230
REMARK   94  A    between atoms: _230  and  _231
REMARK   95  A    between atoms: _240  and  _242
REMARK   96  A    between atoms: _242  and  _243
REMARK   97  A    between atoms: _245  and  _247
REMARK   98  A    between atoms: _247  and  _248
REMARK   99  A    between atoms: _247  and  _250
REMARK  100  A    between atoms: _250  and  _251
REMARK  101  A    between atoms: _257  and  _259
REMARK  102  A    between atoms: _259  and  _260
REMARK  103  A    between atoms: _259  and  _262
REMARK  104  A    between atoms: _262  and  _263
REMARK  105  A    between atoms: _266  and  _268
REMARK  106  A    between atoms: _268  and  _269
REMARK  107  A    between atoms: _268  and  _271
REMARK  108  A    between atoms: _271  and  _272
REMARK  109  A    between atoms: _272  and  _273
REMARK  110  A    between atoms: _278  and  _280
REMARK  111  A    between atoms: _280  and  _281
REMARK  112  A    between atoms: _280  and  _283
REMARK  113  A    between atoms: _283  and  _284
REMARK  114  A    between atoms: _287  and  _289
REMARK  115  A    between atoms: _289  and  _290
REMARK  116  A    between atoms: _289  and  _292
REMARK  117  A    between atoms: _292  and  _293
REMARK  118  A    between atoms: _296  and  _298
REMARK  119  A    between atoms: _298  and  _299
REMARK  120  A    between atoms: _302  and  _304
REMARK  121  A    between atoms: _304  and  _305
REMARK  122  A    between atoms: _304  and  _307
REMARK  123  A    between atoms: _307  and  _308
REMARK  124  A    between atoms: _312  and  ZN_632
REMARK  125  A    between atoms: _313  and  _315
REMARK  126  A    between atoms: _315  and  _316
REMARK  127  A    between atoms: _315  and  _318
REMARK  128  A    between atoms: _318  and  _319
REMARK  129  A    between atoms: _322  and  _324
REMARK  130  A    between atoms: _324  and  _325
REMARK  131  A    between atoms: _324  and  _327
REMARK  132  A    between atoms: _327  and  _328
REMARK  133  A    between atoms: _330  and  _332
REMARK  134  A    between atoms: _332  and  _333
REMARK  135  A    between atoms: _332  and  _335
REMARK  136  A    between atoms: _335  and  _336
REMARK  137  A    between atoms: _336  and  _337
REMARK  138  A    between atoms: _340  and  _342
REMARK  139  A    between atoms: _342  and  _343
REMARK  140  A    between atoms: _345  and  _347
REMARK  141  A    between atoms: _347  and  _348
REMARK  142  A    between atoms: _351  and  _353
REMARK  143  A    between atoms: _353  and  _354
REMARK  144  A    between atoms: _353  and  _356
REMARK  145  A    between atoms: _356  and  _357
REMARK  146  A    between atoms: _363  and  _365
REMARK  147  A    between atoms: _365  and  _366
REMARK  148  A    between atoms: _365  and  _368
REMARK  149  A    between atoms: _368  and  _369
REMARK  150  A    between atoms: _374  and  _375
REMARK  151  A    between atoms: _377  and  _379
REMARK  152  A    between atoms: _379  and  _380
REMARK  153  A    between atoms: _379  and  _382
REMARK  154  A    between atoms: _382  and  _383
REMARK  155  A    between atoms: _383  and  _384
REMARK  156  A    between atoms: _384  and  _385
REMARK  157  A    between atoms: _385  and  _386
REMARK  158  A    between atoms: _390  and  _392
REMARK  159  A    between atoms: _392  and  _393
REMARK  160  A    between atoms: _392  and  _395
REMARK  161  A    between atoms: _395  and  _396
REMARK  162  A    between atoms: _399  and  _401
REMARK  163  A    between atoms: _401  and  _402
REMARK  164  A    between atoms: _401  and  _404
REMARK  165  A    between atoms: _404  and  _405
REMARK  166  A    between atoms: _405  and  _406
REMARK  167  A    between atoms: _409  and  _411
REMARK  168  A    between atoms: _411  and  _412
REMARK  169  A    between atoms: _411  and  _414
REMARK  170  A    between atoms: _414  and  _415
REMARK  171  A    between atoms: _425  and  _427
REMARK  172  A    between atoms: _427  and  _428
REMARK  173  A    between atoms: _427  and  _430
REMARK  174  A    between atoms: _430  and  _431
REMARK  175  A    between atoms: _431  and  _432
REMARK  176  A    between atoms: _437  and  _439
REMARK  177  A    between atoms: _439  and  _440
REMARK  178  A    between atoms: _439  and  _442
REMARK  179  A    between atoms: _444  and  _446
REMARK  180  A    between atoms: _446  and  _447
REMARK  181  A    between atoms: _449  and  _451
REMARK  182  A    between atoms: _451  and  _452
REMARK  183  A    between atoms: _451  and  _454
REMARK  184  A    between atoms: _454  and  _455
REMARK  185  A    between atoms: _458  and  _460
REMARK  186  A    between atoms: _460  and  _461
REMARK  187  A    between atoms: _460  and  _463
REMARK  188  A    between atoms: _466  and  _468
REMARK  189  A    between atoms: _468  and  _469
REMARK  190  A    between atoms: _468  and  _471
REMARK  191  A    between atoms: _471  and  _472
REMARK  192  A    between atoms: _472  and  _473
REMARK  193  A    between atoms: _478  and  _480
REMARK  194  A    between atoms: _480  and  _481
REMARK  195  A    between atoms: _480  and  _483
REMARK  196  A    between atoms: _483  and  _484
REMARK  197  A    between atoms: _487  and  _489
REMARK  198  A    between atoms: _489  and  _490
REMARK  199  A    between atoms: _489  and  _492
REMARK  200  A    between atoms: _492  and  _493
REMARK  201  A    between atoms: _496  and  _498
REMARK  202  A    between atoms: _498  and  _499
REMARK  203  A    between atoms: _498  and  _501
REMARK  204  A    between atoms: _501  and  _502
REMARK  205  A    between atoms: _502  and  _503
REMARK  206  A    between atoms: _505  and  _507
REMARK  207  A    between atoms: _507  and  _508
REMARK  208  A    between atoms: _507  and  _510
REMARK  209  A    between atoms: _510  and  _511
REMARK  210  A    between atoms: _514  and  _516
REMARK  211  A    between atoms: _516  and  _517
REMARK  212  A    between atoms: _516  and  _519
REMARK  213  A    between atoms: _519  and  _520
REMARK  214  A    between atoms: _521  and  ZN_632
REMARK  215  A    between atoms: _525  and  _527
REMARK  216  A    between atoms: _527  and  _528
REMARK  217  A    between atoms: _527  and  _530
REMARK  218  A    between atoms: _530  and  _531
REMARK  219  A    between atoms: _531  and  _532
REMARK  220  A    between atoms: _532  and  _533
REMARK  221  A    between atoms: _542  and  _544
REMARK  222  A    between atoms: _544  and  _545
REMARK  223  A    between atoms: _548  and  _550
REMARK  224  A    between atoms: _550  and  _551
REMARK  225  A    between atoms: _550  and  _553
REMARK  226  A    between atoms: _553  and  _554
REMARK  227  A    between atoms: _557  and  _559
REMARK  228  A    between atoms: _559  and  _560
REMARK  229  A    between atoms: _559  and  _562
REMARK  230  A    between atoms: _562  and  _563
REMARK  231  A    between atoms: _566  and  _568
REMARK  232  A    between atoms: _568  and  _569
REMARK  233  A    between atoms: _571  and  _573
REMARK  234  A    between atoms: _573  and  _574
REMARK  235  A    between atoms: _573  and  _576
REMARK  236  A    between atoms: _576  and  _577
REMARK  237  A    between atoms: _579  and  _581
REMARK  238  A    between atoms: _581  and  _582
REMARK  239  A    between atoms: _581  and  _584
REMARK  240  A    between atoms: _584  and  _585
REMARK  241  A    between atoms: _585  and  _586
REMARK  242  A    between atoms: _588  and  _590
REMARK  243  A    between atoms: _590  and  _591
REMARK  244  A    between atoms: _590  and  _593
REMARK  245  A    between atoms: _593  and  _594
REMARK  246  A    between atoms: _594  and  _595
REMARK  247  A    between atoms: _598  and  _600
REMARK  248  A    between atoms: _600  and  _601
REMARK  249  A    between atoms: _600  and  _603
REMARK  250  A    between atoms: _603  and  _604
REMARK  251  A    between atoms: _604  and  _605
REMARK  252  A    between atoms: _605  and  _606
REMARK  253  A    between atoms: _615  and  _617
REMARK  254  A    between atoms: _617  and  _618
REMARK  255  A    between atoms: _617  and  _620
REMARK  256  A    between atoms: _620  and  _621
REMARK  257  A    between atoms: _627  and  _629
REMARK  258  A    between atoms: _629  and  _630
REMARK                            x       y       z     vdW  Elec       q    Type
REMARK                         _______ _______ _______ _____ _____    ______ ____
ROOT
ATOM      1  O   HOH     1     -12.644 -31.388  16.610  0.00  0.00    +0.000 OA
ENDROOT
TORSDOF 0
REMARK  Name = ../refined-set-2016/4hwo/4hwo_pocket.pdb
REMARK  258 active torsions:
REMARK  status: ('A' for Active; 'I' for Inactive)
REMARK    1  A    between atoms: _1  and  _3
REMARK    2  A    between atoms: _3  and  _4
REMARK    3  A    between atoms: _6  and  _8
REMARK    4  A    between atoms: _8  and  _9
REMARK    5  A    between atoms: _8  and  _11
REMARK    6  A    between atoms: _14  and  _16
REMARK    7  A    between atoms: _16  and  _17
REMARK    8  A    between atoms: _16  and  _19
REMARK    9  A    between atoms: _19  and  _20
REMARK   10  A    between atoms: _25  and  _27
REMARK   11  A    between atoms: _27  and  _28
REMARK   12  A    between atoms: _27  and  _30
REMARK   13  A    between atoms: _30  and  _31
REMARK   14  A    between atoms: _36  and  _37
REMARK   15  A    between atoms: _40  and  _41
REMARK   16  A    between atoms: _46  and  _48
REMARK   17  A    between atoms: _48  and  _49
REMARK   18  A    between atoms: _48  and  _51
REMARK   19  A    between atoms: _51  and  _52
REMARK   20  A    between atoms: _52  and  _53
REMARK   21  A    between atoms: _55  and  _57
REMARK   22  A    between atoms: _57  and  _58
REMARK   23  A    between atoms: _57  and  _60
REMARK   24  A    between atoms: _60  and  _61
REMARK   25  A    between atoms: _66  and  _68
REMARK   26  A    between atoms: _68  and  _69
REMARK   27  A    between atoms: _68  and  _71
REMARK   28  A    between atoms: _71  and  _72
REMARK   29  A    between atoms: _72  and  ZN_632
REMARK   30  A    between atoms: _74  and  _75
REMARK   31  A    between atoms: _80  and  _82
REMARK   32  A    between atoms: _82  and  _83
REMARK   33  A    between atoms: _82  and  _85
REMARK   34  A    between atoms: _85  and  _86
REMARK   35  A    between atoms: _91  and  _93
REMARK   36  A    between atoms: _93  and  _94
REMARK   37  A    between atoms: _93  and  _96
REMARK   38  A    between atoms: _98  and  _100
REMARK   39  A    between atoms: _100  and  _101
REMARK   40  A    between atoms: _100  and  _103
REMARK   41  A    between atoms: _103  and  _104
REMARK   42  A    between atoms: _109  and  _111
REMARK   43  A    between atoms: _111  and  _112
REMARK   44  A    between atoms: _111  and  _114
REMARK   45  A    between atoms: _114  and  _115
REMARK   46  A    between atoms: _115  and  _116
REMARK   47  A    between atoms: _116  and  _117
REMARK   48  A    between atoms: _126  and  _128
REMARK   49  A    between atoms: _128  and  _129
REMARK   50  A    between atoms: _128  and  _131
REMARK   51  A    between atoms: _131  and  _132
REMARK   52  A    between atoms: _137  and  _139
REMARK   53  A    between atoms: _139  and  _140
REMARK   54  A    between atoms: _139  and  _142
REMARK   55  A    between atoms: _142  and  _143
REMARK   56  A    between atoms: _143  and  _144
REMARK   57  A    between atoms: _147  and  _149
REMARK   58  A    between atoms: _149  and  _150
REMARK   59  A    between atoms: _149  and  _152
REMARK   60  A    between atoms: _152  and  _153
REMARK   61  A    between atoms: _155  and  _157
REMARK   62  A    between atoms: _157  and  _158
REMARK   63  A    between atoms: _157  and  _160
REMARK   64  A    between atoms: _160  and  _161
REMARK   65  A    between atoms: _164  and  _166
REMARK   66  A    between atoms: _166  and  _167
REMARK   67  A    between atoms: _166  and  _169
REMARK   68  A    between atoms: _169  and  _170
REMARK   69  A    between atoms: _175  and  _177
REMARK   70  A    between atoms: _177  and  _178
REMARK   71  A    between atoms: _180  and  _182
REMARK   72  A    between atoms: _182  and  _183
REMARK   73  A    between atoms: _182  and  _185
REMARK   74  A    between atoms: _185  and  _186
REMARK   75  A    between atoms: _189  and  _191
REMARK   76  A    between atoms: _191  and  _192
REMARK   77  A    between atoms: _191  and  _194
REMARK   78  A    between atoms: _194  and  _195
REMARK   79  A    between atoms: _195  and  _196
REMARK   80  A    between atoms: _198  and  _200
REMARK   81  A    between atoms: _200  and  _201
REMARK   82  A    between atoms: _200  and  _203
REMARK   83  A    between atoms: _203  and  _204
REMARK   84  A    between atoms: _204  and  _205
REMARK   85  A    between atoms: _205  and  _206
REMARK   86  A    between atoms: _215  and  _217
REMARK   87  A    between atoms: _217  and  _218
REMARK   88  A    between atoms: _217  and  _220
REMARK   89  A    between atoms: _223  and  _225
REMARK   90  A    between atoms: _225  and  _226
REMARK   91  A    between atoms: _225  and  _228
REMARK   92  A    between atoms: _228  and  _229
REMARK   93  A    between atoms: _229  and  _230
REMARK   94  A    between atoms: _230  and  _231
REMARK   95  A    between atoms: _240  and  _242
REMARK   96  A    between atoms: _242  and  _243
REMARK   97  A    between atoms: _245  and  _247
REMARK   98  A    between atoms: _247  and  _248
REMARK   99  A    between atoms: _247  and  _250
REMARK  100  A    between atoms: _250  and  _251
REMARK  101  A    between atoms: _257  and  _259
REMARK  102  A    between atoms: _259  and  _260
REMARK  103  A    between atoms: _259  and  _262
REMARK  104  A    between atoms: _262  and  _263
REMARK  105  A    between atoms: _266  and  _268
REMARK  106  A    between atoms: _268  and  _269
REMARK  107  A    between atoms: _268  and  _271
REMARK  108  A    between atoms: _271  and  _272
REMARK  109  A    between atoms: _272  and  _273
REMARK  110  A    between atoms: _278  and  _280
REMARK  111  A    between atoms: _280  and  _281
REMARK  112  A    between atoms: _280  and  _283
REMARK  113  A    between atoms: _283  and  _284
REMARK  114  A    between atoms: _287  and  _289
REMARK  115  A    between atoms: _289  and  _290
REMARK  116  A    between atoms: _289  and  _292
REMARK  117  A    between atoms: _292  and  _293
REMARK  118  A    between atoms: _296  and  _298
REMARK  119  A    between atoms: _298  and  _299
REMARK  120  A    between atoms: _302  and  _304
REMARK  121  A    between atoms: _304  and  _305
REMARK  122  A    between atoms: _304  and  _307
REMARK  123  A    between atoms: _307  and  _308
REMARK  124  A    between atoms: _312  and  ZN_632
REMARK  125  A    between atoms: _313  and  _315
REMARK  126  A    between atoms: _315  and  _316
REMARK  127  A    between atoms: _315  and  _318
REMARK  128  A    between atoms: _318  and  _319
REMARK  129  A    between atoms: _322  and  _324
REMARK  130  A    between atoms: _324  and  _325
REMARK  131  A    between atoms: _324  and  _327
REMARK  132  A    between atoms: _327  and  _328
REMARK  133  A    between atoms: _330  and  _332
REMARK  134  A    between atoms: _332  and  _333
REMARK  135  A    between atoms: _332  and  _335
REMARK  136  A    between atoms: _335  and  _336
REMARK  137  A    between atoms: _336  and  _337
REMARK  138  A    between atoms: _340  and  _342
REMARK  139  A    between atoms: _342  and  _343
REMARK  140  A    between atoms: _345  and  _347
REMARK  141  A    between atoms: _347  and  _348
REMARK  142  A    between atoms: _351  and  _353
REMARK  143  A    between atoms: _353  and  _354
REMARK  144  A    between atoms: _353  and  _356
REMARK  145  A    between atoms: _356  and  _357
REMARK  146  A    between atoms: _363  and  _365
REMARK  147  A    between atoms: _365  and  _366
REMARK  148  A    between atoms: _365  and  _368
REMARK  149  A    between atoms: _368  and  _369
REMARK  150  A    between atoms: _374  and  _375
REMARK  151  A    between atoms: _377  and  _379
REMARK  152  A    between atoms: _379  and  _380
REMARK  153  A    between atoms: _379  and  _382
REMARK  154  A    between atoms: _382  and  _383
REMARK  155  A    between atoms: _383  and  _384
REMARK  156  A    between atoms: _384  and  _385
REMARK  157  A    between atoms: _385  and  _386
REMARK  158  A    between atoms: _390  and  _392
REMARK  159  A    between atoms: _392  and  _393
REMARK  160  A    between atoms: _392  and  _395
REMARK  161  A    between atoms: _395  and  _396
REMARK  162  A    between atoms: _399  and  _401
REMARK  163  A    between atoms: _401  and  _402
REMARK  164  A    between atoms: _401  and  _404
REMARK  165  A    between atoms: _404  and  _405
REMARK  166  A    between atoms: _405  and  _406
REMARK  167  A    between atoms: _409  and  _411
REMARK  168  A    between atoms: _411  and  _412
REMARK  169  A    between atoms: _411  and  _414
REMARK  170  A    between atoms: _414  and  _415
REMARK  171  A    between atoms: _425  and  _427
REMARK  172  A    between atoms: _427  and  _428
REMARK  173  A    between atoms: _427  and  _430
REMARK  174  A    between atoms: _430  and  _431
REMARK  175  A    between atoms: _431  and  _432
REMARK  176  A    between atoms: _437  and  _439
REMARK  177  A    between atoms: _439  and  _440
REMARK  178  A    between atoms: _439  and  _442
REMARK  179  A    between atoms: _444  and  _446
REMARK  180  A    between atoms: _446  and  _447
REMARK  181  A    between atoms: _449  and  _451
REMARK  182  A    between atoms: _451  and  _452
REMARK  183  A    between atoms: _451  and  _454
REMARK  184  A    between atoms: _454  and  _455
REMARK  185  A    between atoms: _458  and  _460
REMARK  186  A    between atoms: _460  and  _461
REMARK  187  A    between atoms: _460  and  _463
REMARK  188  A    between atoms: _466  and  _468
REMARK  189  A    between atoms: _468  and  _469
REMARK  190  A    between atoms: _468  and  _471
REMARK  191  A    between atoms: _471  and  _472
REMARK  192  A    between atoms: _472  and  _473
REMARK  193  A    between atoms: _478  and  _480
REMARK  194  A    between atoms: _480  and  _481
REMARK  195  A    between atoms: _480  and  _483
REMARK  196  A    between atoms: _483  and  _484
REMARK  197  A    between atoms: _487  and  _489
REMARK  198  A    between atoms: _489  and  _490
REMARK  199  A    between atoms: _489  and  _492
REMARK  200  A    between atoms: _492  and  _493
REMARK  201  A    between atoms: _496  and  _498
REMARK  202  A    between atoms: _498  and  _499
REMARK  203  A    between atoms: _498  and  _501
REMARK  204  A    between atoms: _501  and  _502
REMARK  205  A    between atoms: _502  and  _503
REMARK  206  A    between atoms: _505  and  _507
REMARK  207  A    between atoms: _507  and  _508
REMARK  208  A    between atoms: _507  and  _510
REMARK  209  A    between atoms: _510  and  _511
REMARK  210  A    between atoms: _514  and  _516
REMARK  211  A    between atoms: _516  and  _517
REMARK  212  A    between atoms: _516  and  _519
REMARK  213  A    between atoms: _519  and  _520
REMARK  214  A    between atoms: _521  and  ZN_632
REMARK  215  A    between atoms: _525  and  _527
REMARK  216  A    between atoms: _527  and  _528
REMARK  217  A    between atoms: _527  and  _530
REMARK  218  A    between atoms: _530  and  _531
REMARK  219  A    between atoms: _531  and  _532
REMARK  220  A    between atoms: _532  and  _533
REMARK  221  A    between atoms: _542  and  _544
REMARK  222  A    between atoms: _544  and  _545
REMARK  223  A    between atoms: _548  and  _550
REMARK  224  A    between atoms: _550  and  _551
REMARK  225  A    between atoms: _550  and  _553
REMARK  226  A    between atoms: _553  and  _554
REMARK  227  A    between atoms: _557  and  _559
REMARK  228  A    between atoms: _559  and  _560
REMARK  229  A    between atoms: _559  and  _562
REMARK  230  A    between atoms: _562  and  _563
REMARK  231  A    between atoms: _566  and  _568
REMARK  232  A    between atoms: _568  and  _569
REMARK  233  A    between atoms: _571  and  _573
REMARK  234  A    between atoms: _573  and  _574
REMARK  235  A    between atoms: _573  and  _576
REMARK  236  A    between atoms: _576  and  _577
REMARK  237  A    between atoms: _579  and  _581
REMARK  238  A    between atoms: _581  and  _582
REMARK  239  A    between atoms: _581  and  _584
REMARK  240  A    between atoms: _584  and  _585
REMARK  241  A    between atoms: _585  and  _586
REMARK  242  A    between atoms: _588  and  _590
REMARK  243  A    between atoms: _590  and  _591
REMARK  244  A    between atoms: _590  and  _593
REMARK  245  A    between atoms: _593  and  _594
REMARK  246  A    between atoms: _594  and  _595
REMARK  247  A    between atoms: _598  and  _600
REMARK  248  A    between atoms: _600  and  _601
REMARK  249  A    between atoms: _600  and  _603
REMARK  250  A    between atoms: _603  and  _604
REMARK  251  A    between atoms: _604  and  _605
REMARK  252  A    between atoms: _605  and  _606
REMARK  253  A    between atoms: _615  and  _617
REMARK  254  A    between atoms: _617  and  _618
REMARK  255  A    between atoms: _617  and  _620
REMARK  256  A    between atoms: _620  and  _621
REMARK  257  A    between atoms: _627  and  _629
REMARK  258  A    between atoms: _629  and  _630
REMARK                            x       y       z     vdW  Elec       q    Type
REMARK                         _______ _______ _______ _____ _____    ______ ____
ROOT
ATOM      1  O   HOH     1     -20.028 -38.890  23.606  0.00  0.00    +0.000 OA
ENDROOT
TORSDOF 0
REMARK  Name = ../refined-set-2016/4hwo/4hwo_pocket.pdb
REMARK  258 active torsions:
REMARK  status: ('A' for Active; 'I' for Inactive)
REMARK    1  A    between atoms: _1  and  _3
REMARK    2  A    between atoms: _3  and  _4
REMARK    3  A    between atoms: _6  and  _8
REMARK    4  A    between atoms: _8  and  _9
REMARK    5  A    between atoms: _8  and  _11
REMARK    6  A    between atoms: _14  and  _16
REMARK    7  A    between atoms: _16  and  _17
REMARK    8  A    between atoms: _16  and  _19
REMARK    9  A    between atoms: _19  and  _20
REMARK   10  A    between atoms: _25  and  _27
REMARK   11  A    between atoms: _27  and  _28
REMARK   12  A    between atoms: _27  and  _30
REMARK   13  A    between atoms: _30  and  _31
REMARK   14  A    between atoms: _36  and  _37
REMARK   15  A    between atoms: _40  and  _41
REMARK   16  A    between atoms: _46  and  _48
REMARK   17  A    between atoms: _48  and  _49
REMARK   18  A    between atoms: _48  and  _51
REMARK   19  A    between atoms: _51  and  _52
REMARK   20  A    between atoms: _52  and  _53
REMARK   21  A    between atoms: _55  and  _57
REMARK   22  A    between atoms: _57  and  _58
REMARK   23  A    between atoms: _57  and  _60
REMARK   24  A    between atoms: _60  and  _61
REMARK   25  A    between atoms: _66  and  _68
REMARK   26  A    between atoms: _68  and  _69
REMARK   27  A    between atoms: _68  and  _71
REMARK   28  A    between atoms: _71  and  _72
REMARK   29  A    between atoms: _72  and  ZN_632
REMARK   30  A    between atoms: _74  and  _75
REMARK   31  A    between atoms: _80  and  _82
REMARK   32  A    between atoms: _82  and  _83
REMARK   33  A    between atoms: _82  and  _85
REMARK   34  A    between atoms: _85  and  _86
REMARK   35  A    between atoms: _91  and  _93
REMARK   36  A    between atoms: _93  and  _94
REMARK   37  A    between atoms: _93  and  _96
REMARK   38  A    between atoms: _98  and  _100
REMARK   39  A    between atoms: _100  and  _101
REMARK   40  A    between atoms: _100  and  _103
REMARK   41  A    between atoms: _103  and  _104
REMARK   42  A    between atoms: _109  and  _111
REMARK   43  A    between atoms: _111  and  _112
REMARK   44  A    between atoms: _111  and  _114
REMARK   45  A    between atoms: _114  and  _115
REMARK   46  A    between atoms: _115  and  _116
REMARK   47  A    between atoms: _116  and  _117
REMARK   48  A    between atoms: _126  and  _128
REMARK   49  A    between atoms: _128  and  _129
REMARK   50  A    between atoms: _128  and  _131
REMARK   51  A    between atoms: _131  and  _132
REMARK   52  A    between atoms: _137  and  _139
REMARK   53  A    between atoms: _139  and  _140
REMARK   54  A    between atoms: _139  and  _142
REMARK   55  A    between atoms: _142  and  _143
REMARK   56  A    between atoms: _143  and  _144
REMARK   57  A    between atoms: _147  and  _149
REMARK   58  A    between atoms: _149  and  _150
REMARK   59  A    between atoms: _149  and  _152
REMARK   60  A    between atoms: _152  and  _153
REMARK   61  A    between atoms: _155  and  _157
REMARK   62  A    between atoms: _157  and  _158
REMARK   63  A    between atoms: _157  and  _160
REMARK   64  A    between atoms: _160  and  _161
REMARK   65  A    between atoms: _164  and  _166
REMARK   66  A    between atoms: _166  and  _167
REMARK   67  A    between atoms: _166  and  _169
REMARK   68  A    between atoms: _169  and  _170
REMARK   69  A    between atoms: _175  and  _177
REMARK   70  A    between atoms: _177  and  _178
REMARK   71  A    between atoms: _180  and  _182
REMARK   72  A    between atoms: _182  and  _183
REMARK   73  A    between atoms: _182  and  _185
REMARK   74  A    between atoms: _185  and  _186
REMARK   75  A    between atoms: _189  and  _191
REMARK   76  A    between atoms: _191  and  _192
REMARK   77  A    between atoms: _191  and  _194
REMARK   78  A    between atoms: _194  and  _195
REMARK   79  A    between atoms: _195  and  _196
REMARK   80  A    between atoms: _198  and  _200
REMARK   81  A    between atoms: _200  and  _201
REMARK   82  A    between atoms: _200  and  _203
REMARK   83  A    between atoms: _203  and  _204
REMARK   84  A    between atoms: _204  and  _205
REMARK   85  A    between atoms: _205  and  _206
REMARK   86  A    between atoms: _215  and  _217
REMARK   87  A    between atoms: _217  and  _218
REMARK   88  A    between atoms: _217  and  _220
REMARK   89  A    between atoms: _223  and  _225
REMARK   90  A    between atoms: _225  and  _226
REMARK   91  A    between atoms: _225  and  _228
REMARK   92  A    between atoms: _228  and  _229
REMARK   93  A    between atoms: _229  and  _230
REMARK   94  A    between atoms: _230  and  _231
REMARK   95  A    between atoms: _240  and  _242
REMARK   96  A    between atoms: _242  and  _243
REMARK   97  A    between atoms: _245  and  _247
REMARK   98  A    between atoms: _247  and  _248
REMARK   99  A    between atoms: _247  and  _250
REMARK  100  A    between atoms: _250  and  _251
REMARK  101  A    between atoms: _257  and  _259
REMARK  102  A    between atoms: _259  and  _260
REMARK  103  A    between atoms: _259  and  _262
REMARK  104  A    between atoms: _262  and  _263
REMARK  105  A    between atoms: _266  and  _268
REMARK  106  A    between atoms: _268  and  _269
REMARK  107  A    between atoms: _268  and  _271
REMARK  108  A    between atoms: _271  and  _272
REMARK  109  A    between atoms: _272  and  _273
REMARK  110  A    between atoms: _278  and  _280
REMARK  111  A    between atoms: _280  and  _281
REMARK  112  A    between atoms: _280  and  _283
REMARK  113  A    between atoms: _283  and  _284
REMARK  114  A    between atoms: _287  and  _289
REMARK  115  A    between atoms: _289  and  _290
REMARK  116  A    between atoms: _289  and  _292
REMARK  117  A    between atoms: _292  and  _293
REMARK  118  A    between atoms: _296  and  _298
REMARK  119  A    between atoms: _298  and  _299
REMARK  120  A    between atoms: _302  and  _304
REMARK  121  A    between atoms: _304  and  _305
REMARK  122  A    between atoms: _304  and  _307
REMARK  123  A    between atoms: _307  and  _308
REMARK  124  A    between atoms: _312  and  ZN_632
REMARK  125  A    between atoms: _313  and  _315
REMARK  126  A    between atoms: _315  and  _316
REMARK  127  A    between atoms: _315  and  _318
REMARK  128  A    between atoms: _318  and  _319
REMARK  129  A    between atoms: _322  and  _324
REMARK  130  A    between atoms: _324  and  _325
REMARK  131  A    between atoms: _324  and  _327
REMARK  132  A    between atoms: _327  and  _328
REMARK  133  A    between atoms: _330  and  _332
REMARK  134  A    between atoms: _332  and  _333
REMARK  135  A    between atoms: _332  and  _335
REMARK  136  A    between atoms: _335  and  _336
REMARK  137  A    between atoms: _336  and  _337
REMARK  138  A    between atoms: _340  and  _342
REMARK  139  A    between atoms: _342  and  _343
REMARK  140  A    between atoms: _345  and  _347
REMARK  141  A    between atoms: _347  and  _348
REMARK  142  A    between atoms: _351  and  _353
REMARK  143  A    between atoms: _353  and  _354
REMARK  144  A    between atoms: _353  and  _356
REMARK  145  A    between atoms: _356  and  _357
REMARK  146  A    between atoms: _363  and  _365
REMARK  147  A    between atoms: _365  and  _366
REMARK  148  A    between atoms: _365  and  _368
REMARK  149  A    between atoms: _368  and  _369
REMARK  150  A    between atoms: _374  and  _375
REMARK  151  A    between atoms: _377  and  _379
REMARK  152  A    between atoms: _379  and  _380
REMARK  153  A    between atoms: _379  and  _382
REMARK  154  A    between atoms: _382  and  _383
REMARK  155  A    between atoms: _383  and  _384
REMARK  156  A    between atoms: _384  and  _385
REMARK  157  A    between atoms: _385  and  _386
REMARK  158  A    between atoms: _390  and  _392
REMARK  159  A    between atoms: _392  and  _393
REMARK  160  A    between atoms: _392  and  _395
REMARK  161  A    between atoms: _395  and  _396
REMARK  162  A    between atoms: _399  and  _401
REMARK  163  A    between atoms: _401  and  _402
REMARK  164  A    between atoms: _401  and  _404
REMARK  165  A    between atoms: _404  and  _405
REMARK  166  A    between atoms: _405  and  _406
REMARK  167  A    between atoms: _409  and  _411
REMARK  168  A    between atoms: _411  and  _412
REMARK  169  A    between atoms: _411  and  _414
REMARK  170  A    between atoms: _414  and  _415
REMARK  171  A    between atoms: _425  and  _427
REMARK  172  A    between atoms: _427  and  _428
REMARK  173  A    between atoms: _427  and  _430
REMARK  174  A    between atoms: _430  and  _431
REMARK  175  A    between atoms: _431  and  _432
REMARK  176  A    between atoms: _437  and  _439
REMARK  177  A    between atoms: _439  and  _440
REMARK  178  A    between atoms: _439  and  _442
REMARK  179  A    between atoms: _444  and  _446
REMARK  180  A    between atoms: _446  and  _447
REMARK  181  A    between atoms: _449  and  _451
REMARK  182  A    between atoms: _451  and  _452
REMARK  183  A    between atoms: _451  and  _454
REMARK  184  A    between atoms: _454  and  _455
REMARK  185  A    between atoms: _458  and  _460
REMARK  186  A    between atoms: _460  and  _461
REMARK  187  A    between atoms: _460  and  _463
REMARK  188  A    between atoms: _466  and  _468
REMARK  189  A    between atoms: _468  and  _469
REMARK  190  A    between atoms: _468  and  _471
REMARK  191  A    between atoms: _471  and  _472
REMARK  192  A    between atoms: _472  and  _473
REMARK  193  A    between atoms: _478  and  _480
REMARK  194  A    between atoms: _480  and  _481
REMARK  195  A    between atoms: _480  and  _483
REMARK  196  A    between atoms: _483  and  _484
REMARK  197  A    between atoms: _487  and  _489
REMARK  198  A    between atoms: _489  and  _490
REMARK  199  A    between atoms: _489  and  _492
REMARK  200  A    between atoms: _492  and  _493
REMARK  201  A    between atoms: _496  and  _498
REMARK  202  A    between atoms: _498  and  _499
REMARK  203  A    between atoms: _498  and  _501
REMARK  204  A    between atoms: _501  and  _502
REMARK  205  A    between atoms: _502  and  _503
REMARK  206  A    between atoms: _505  and  _507
REMARK  207  A    between atoms: _507  and  _508
REMARK  208  A    between atoms: _507  and  _510
REMARK  209  A    between atoms: _510  and  _511
REMARK  210  A    between atoms: _514  and  _516
REMARK  211  A    between atoms: _516  and  _517
REMARK  212  A    between atoms: _516  and  _519
REMARK  213  A    between atoms: _519  and  _520
REMARK  214  A    between atoms: _521  and  ZN_632
REMARK  215  A    between atoms: _525  and  _527
REMARK  216  A    between atoms: _527  and  _528
REMARK  217  A    between atoms: _527  and  _530
REMARK  218  A    between atoms: _530  and  _531
REMARK  219  A    between atoms: _531  and  _532
REMARK  220  A    between atoms: _532  and  _533
REMARK  221  A    between atoms: _542  and  _544
REMARK  222  A    between atoms: _544  and  _545
REMARK  223  A    between atoms: _548  and  _550
REMARK  224  A    between atoms: _550  and  _551
REMARK  225  A    between atoms: _550  and  _553
REMARK  226  A    between atoms: _553  and  _554
REMARK  227  A    between atoms: _557  and  _559
REMARK  228  A    between atoms: _559  and  _560
REMARK  229  A    between atoms: _559  and  _562
REMARK  230  A    between atoms: _562  and  _563
REMARK  231  A    between atoms: _566  and  _568
REMARK  232  A    between atoms: _568  and  _569
REMARK  233  A    between atoms: _571  and  _573
REMARK  234  A    between atoms: _573  and  _574
REMARK  235  A    between atoms: _573  and  _576
REMARK  236  A    between atoms: _576  and  _577
REMARK  237  A    between atoms: _579  and  _581
REMARK  238  A    between atoms: _581  and  _582
REMARK  239  A    between atoms: _581  and  _584
REMARK  240  A    between atoms: _584  and  _585
REMARK  241  A    between atoms: _585  and  _586
REMARK  242  A    between atoms: _588  and  _590
REMARK  243  A    between atoms: _590  and  _591
REMARK  244  A    between atoms: _590  and  _593
REMARK  245  A    between atoms: _593  and  _594
REMARK  246  A    between atoms: _594  and  _595
REMARK  247  A    between atoms: _598  and  _600
REMARK  248  A    between atoms: _600  and  _601
REMARK  249  A    between atoms: _600  and  _603
REMARK  250  A    between atoms: _603  and  _604
REMARK  251  A    between atoms: _604  and  _605
REMARK  252  A    between atoms: _605  and  _606
REMARK  253  A    between atoms: _615  and  _617
REMARK  254  A    between atoms: _617  and  _618
REMARK  255  A    between atoms: _617  and  _620
REMARK  256  A    between atoms: _620  and  _621
REMARK  257  A    between atoms: _627  and  _629
REMARK  258  A    between atoms: _629  and  _630
REMARK                            x       y       z     vdW  Elec       q    Type
REMARK                         _______ _______ _______ _____ _____    ______ ____
ROOT
ATOM      1  O   HOH     1     -29.633 -39.324  14.031  0.00  0.00    +0.000 OA
ENDROOT
TORSDOF 0
REMARK  Name = ../refined-set-2016/4hwo/4hwo_pocket.pdb
REMARK  258 active torsions:
REMARK  status: ('A' for Active; 'I' for Inactive)
REMARK    1  A    between atoms: _1  and  _3
REMARK    2  A    between atoms: _3  and  _4
REMARK    3  A    between atoms: _6  and  _8
REMARK    4  A    between atoms: _8  and  _9
REMARK    5  A    between atoms: _8  and  _11
REMARK    6  A    between atoms: _14  and  _16
REMARK    7  A    between atoms: _16  and  _17
REMARK    8  A    between atoms: _16  and  _19
REMARK    9  A    between atoms: _19  and  _20
REMARK   10  A    between atoms: _25  and  _27
REMARK   11  A    between atoms: _27  and  _28
REMARK   12  A    between atoms: _27  and  _30
REMARK   13  A    between atoms: _30  and  _31
REMARK   14  A    between atoms: _36  and  _37
REMARK   15  A    between atoms: _40  and  _41
REMARK   16  A    between atoms: _46  and  _48
REMARK   17  A    between atoms: _48  and  _49
REMARK   18  A    between atoms: _48  and  _51
REMARK   19  A    between atoms: _51  and  _52
REMARK   20  A    between atoms: _52  and  _53
REMARK   21  A    between atoms: _55  and  _57
REMARK   22  A    between atoms: _57  and  _58
REMARK   23  A    between atoms: _57  and  _60
REMARK   24  A    between atoms: _60  and  _61
REMARK   25  A    between atoms: _66  and  _68
REMARK   26  A    between atoms: _68  and  _69
REMARK   27  A    between atoms: _68  and  _71
REMARK   28  A    between atoms: _71  and  _72
REMARK   29  A    between atoms: _72  and  ZN_632
REMARK   30  A    between atoms: _74  and  _75
REMARK   31  A    between atoms: _80  and  _82
REMARK   32  A    between atoms: _82  and  _83
REMARK   33  A    between atoms: _82  and  _85
REMARK   34  A    between atoms: _85  and  _86
REMARK   35  A    between atoms: _91  and  _93
REMARK   36  A    between atoms: _93  and  _94
REMARK   37  A    between atoms: _93  and  _96
REMARK   38  A    between atoms: _98  and  _100
REMARK   39  A    between atoms: _100  and  _101
REMARK   40  A    between atoms: _100  and  _103
REMARK   41  A    between atoms: _103  and  _104
REMARK   42  A    between atoms: _109  and  _111
REMARK   43  A    between atoms: _111  and  _112
REMARK   44  A    between atoms: _111  and  _114
REMARK   45  A    between atoms: _114  and  _115
REMARK   46  A    between atoms: _115  and  _116
REMARK   47  A    between atoms: _116  and  _117
REMARK   48  A    between atoms: _126  and  _128
REMARK   49  A    between atoms: _128  and  _129
REMARK   50  A    between atoms: _128  and  _131
REMARK   51  A    between atoms: _131  and  _132
REMARK   52  A    between atoms: _137  and  _139
REMARK   53  A    between atoms: _139  and  _140
REMARK   54  A    between atoms: _139  and  _142
REMARK   55  A    between atoms: _142  and  _143
REMARK   56  A    between atoms: _143  and  _144
REMARK   57  A    between atoms: _147  and  _149
REMARK   58  A    between atoms: _149  and  _150
REMARK   59  A    between atoms: _149  and  _152
REMARK   60  A    between atoms: _152  and  _153
REMARK   61  A    between atoms: _155  and  _157
REMARK   62  A    between atoms: _157  and  _158
REMARK   63  A    between atoms: _157  and  _160
REMARK   64  A    between atoms: _160  and  _161
REMARK   65  A    between atoms: _164  and  _166
REMARK   66  A    between atoms: _166  and  _167
REMARK   67  A    between atoms: _166  and  _169
REMARK   68  A    between atoms: _169  and  _170
REMARK   69  A    between atoms: _175  and  _177
REMARK   70  A    between atoms: _177  and  _178
REMARK   71  A    between atoms: _180  and  _182
REMARK   72  A    between atoms: _182  and  _183
REMARK   73  A    between atoms: _182  and  _185
REMARK   74  A    between atoms: _185  and  _186
REMARK   75  A    between atoms: _189  and  _191
REMARK   76  A    between atoms: _191  and  _192
REMARK   77  A    between atoms: _191  and  _194
REMARK   78  A    between atoms: _194  and  _195
REMARK   79  A    between atoms: _195  and  _196
REMARK   80  A    between atoms: _198  and  _200
REMARK   81  A    between atoms: _200  and  _201
REMARK   82  A    between atoms: _200  and  _203
REMARK   83  A    between atoms: _203  and  _204
REMARK   84  A    between atoms: _204  and  _205
REMARK   85  A    between atoms: _205  and  _206
REMARK   86  A    between atoms: _215  and  _217
REMARK   87  A    between atoms: _217  and  _218
REMARK   88  A    between atoms: _217  and  _220
REMARK   89  A    between atoms: _223  and  _225
REMARK   90  A    between atoms: _225  and  _226
REMARK   91  A    between atoms: _225  and  _228
REMARK   92  A    between atoms: _228  and  _229
REMARK   93  A    between atoms: _229  and  _230
REMARK   94  A    between atoms: _230  and  _231
REMARK   95  A    between atoms: _240  and  _242
REMARK   96  A    between atoms: _242  and  _243
REMARK   97  A    between atoms: _245  and  _247
REMARK   98  A    between atoms: _247  and  _248
REMARK   99  A    between atoms: _247  and  _250
REMARK  100  A    between atoms: _250  and  _251
REMARK  101  A    between atoms: _257  and  _259
REMARK  102  A    between atoms: _259  and  _260
REMARK  103  A    between atoms: _259  and  _262
REMARK  104  A    between atoms: _262  and  _263
REMARK  105  A    between atoms: _266  and  _268
REMARK  106  A    between atoms: _268  and  _269
REMARK  107  A    between atoms: _268  and  _271
REMARK  108  A    between atoms: _271  and  _272
REMARK  109  A    between atoms: _272  and  _273
REMARK  110  A    between atoms: _278  and  _280
REMARK  111  A    between atoms: _280  and  _281
REMARK  112  A    between atoms: _280  and  _283
REMARK  113  A    between atoms: _283  and  _284
REMARK  114  A    between atoms: _287  and  _289
REMARK  115  A    between atoms: _289  and  _290
REMARK  116  A    between atoms: _289  and  _292
REMARK  117  A    between atoms: _292  and  _293
REMARK  118  A    between atoms: _296  and  _298
REMARK  119  A    between atoms: _298  and  _299
REMARK  120  A    between atoms: _302  and  _304
REMARK  121  A    between atoms: _304  and  _305
REMARK  122  A    between atoms: _304  and  _307
REMARK  123  A    between atoms: _307  and  _308
REMARK  124  A    between atoms: _312  and  ZN_632
REMARK  125  A    between atoms: _313  and  _315
REMARK  126  A    between atoms: _315  and  _316
REMARK  127  A    between atoms: _315  and  _318
REMARK  128  A    between atoms: _318  and  _319
REMARK  129  A    between atoms: _322  and  _324
REMARK  130  A    between atoms: _324  and  _325
REMARK  131  A    between atoms: _324  and  _327
REMARK  132  A    between atoms: _327  and  _328
REMARK  133  A    between atoms: _330  and  _332
REMARK  134  A    between atoms: _332  and  _333
REMARK  135  A    between atoms: _332  and  _335
REMARK  136  A    between atoms: _335  and  _336
REMARK  137  A    between atoms: _336  and  _337
REMARK  138  A    between atoms: _340  and  _342
REMARK  139  A    between atoms: _342  and  _343
REMARK  140  A    between atoms: _345  and  _347
REMARK  141  A    between atoms: _347  and  _348
REMARK  142  A    between atoms: _351  and  _353
REMARK  143  A    between atoms: _353  and  _354
REMARK  144  A    between atoms: _353  and  _356
REMARK  145  A    between atoms: _356  and  _357
REMARK  146  A    between atoms: _363  and  _365
REMARK  147  A    between atoms: _365  and  _366
REMARK  148  A    between atoms: _365  and  _368
REMARK  149  A    between atoms: _368  and  _369
REMARK  150  A    between atoms: _374  and  _375
REMARK  151  A    between atoms: _377  and  _379
REMARK  152  A    between atoms: _379  and  _380
REMARK  153  A    between atoms: _379  and  _382
REMARK  154  A    between atoms: _382  and  _383
REMARK  155  A    between atoms: _383  and  _384
REMARK  156  A    between atoms: _384  and  _385
REMARK  157  A    between atoms: _385  and  _386
REMARK  158  A    between atoms: _390  and  _392
REMARK  159  A    between atoms: _392  and  _393
REMARK  160  A    between atoms: _392  and  _395
REMARK  161  A    between atoms: _395  and  _396
REMARK  162  A    between atoms: _399  and  _401
REMARK  163  A    between atoms: _401  and  _402
REMARK  164  A    between atoms: _401  and  _404
REMARK  165  A    between atoms: _404  and  _405
REMARK  166  A    between atoms: _405  and  _406
REMARK  167  A    between atoms: _409  and  _411
REMARK  168  A    between atoms: _411  and  _412
REMARK  169  A    between atoms: _411  and  _414
REMARK  170  A    between atoms: _414  and  _415
REMARK  171  A    between atoms: _425  and  _427
REMARK  172  A    between atoms: _427  and  _428
REMARK  173  A    between atoms: _427  and  _430
REMARK  174  A    between atoms: _430  and  _431
REMARK  175  A    between atoms: _431  and  _432
REMARK  176  A    between atoms: _437  and  _439
REMARK  177  A    between atoms: _439  and  _440
REMARK  178  A    between atoms: _439  and  _442
REMARK  179  A    between atoms: _444  and  _446
REMARK  180  A    between atoms: _446  and  _447
REMARK  181  A    between atoms: _449  and  _451
REMARK  182  A    between atoms: _451  and  _452
REMARK  183  A    between atoms: _451  and  _454
REMARK  184  A    between atoms: _454  and  _455
REMARK  185  A    between atoms: _458  and  _460
REMARK  186  A    between atoms: _460  and  _461
REMARK  187  A    between atoms: _460  and  _463
REMARK  188  A    between atoms: _466  and  _468
REMARK  189  A    between atoms: _468  and  _469
REMARK  190  A    between atoms: _468  and  _471
REMARK  191  A    between atoms: _471  and  _472
REMARK  192  A    between atoms: _472  and  _473
REMARK  193  A    between atoms: _478  and  _480
REMARK  194  A    between atoms: _480  and  _481
REMARK  195  A    between atoms: _480  and  _483
REMARK  196  A    between atoms: _483  and  _484
REMARK  197  A    between atoms: _487  and  _489
REMARK  198  A    between atoms: _489  and  _490
REMARK  199  A    between atoms: _489  and  _492
REMARK  200  A    between atoms: _492  and  _493
REMARK  201  A    between atoms: _496  and  _498
REMARK  202  A    between atoms: _498  and  _499
REMARK  203  A    between atoms: _498  and  _501
REMARK  204  A    between atoms: _501  and  _502
REMARK  205  A    between atoms: _502  and  _503
REMARK  206  A    between atoms: _505  and  _507
REMARK  207  A    between atoms: _507  and  _508
REMARK  208  A    between atoms: _507  and  _510
REMARK  209  A    between atoms: _510  and  _511
REMARK  210  A    between atoms: _514  and  _516
REMARK  211  A    between atoms: _516  and  _517
REMARK  212  A    between atoms: _516  and  _519
REMARK  213  A    between atoms: _519  and  _520
REMARK  214  A    between atoms: _521  and  ZN_632
REMARK  215  A    between atoms: _525  and  _527
REMARK  216  A    between atoms: _527  and  _528
REMARK  217  A    between atoms: _527  and  _530
REMARK  218  A    between atoms: _530  and  _531
REMARK  219  A    between atoms: _531  and  _532
REMARK  220  A    between atoms: _532  and  _533
REMARK  221  A    between atoms: _542  and  _544
REMARK  222  A    between atoms: _544  and  _545
REMARK  223  A    between atoms: _548  and  _550
REMARK  224  A    between atoms: _550  and  _551
REMARK  225  A    between atoms: _550  and  _553
REMARK  226  A    between atoms: _553  and  _554
REMARK  227  A    between atoms: _557  and  _559
REMARK  228  A    between atoms: _559  and  _560
REMARK  229  A    between atoms: _559  and  _562
REMARK  230  A    between atoms: _562  and  _563
REMARK  231  A    between atoms: _566  and  _568
REMARK  232  A    between atoms: _568  and  _569
REMARK  233  A    between atoms: _571  and  _573
REMARK  234  A    between atoms: _573  and  _574
REMARK  235  A    between atoms: _573  and  _576
REMARK  236  A    between atoms: _576  and  _577
REMARK  237  A    between atoms: _579  and  _581
REMARK  238  A    between atoms: _581  and  _582
REMARK  239  A    between atoms: _581  and  _584
REMARK  240  A    between atoms: _584  and  _585
REMARK  241  A    between atoms: _585  and  _586
REMARK  242  A    between atoms: _588  and  _590
REMARK  243  A    between atoms: _590  and  _591
REMARK  244  A    between atoms: _590  and  _593
REMARK  245  A    between atoms: _593  and  _594
REMARK  246  A    between atoms: _594  and  _595
REMARK  247  A    between atoms: _598  and  _600
REMARK  248  A    between atoms: _600  and  _601
REMARK  249  A    between atoms: _600  and  _603
REMARK  250  A    between atoms: _603  and  _604
REMARK  251  A    between atoms: _604  and  _605
REMARK  252  A    between atoms: _605  and  _606
REMARK  253  A    between atoms: _615  and  _617
REMARK  254  A    between atoms: _617  and  _618
REMARK  255  A    between atoms: _617  and  _620
REMARK  256  A    between atoms: _620  and  _621
REMARK  257  A    between atoms: _627  and  _629
REMARK  258  A    between atoms: _629  and  _630
REMARK                            x       y       z     vdW  Elec       q    Type
REMARK                         _______ _______ _______ _____ _____    ______ ____
ROOT
ATOM      1  O   HOH     1     -18.520 -44.737  18.401  0.00  0.00    +0.000 OA
ENDROOT
TORSDOF 0
REMARK  Name = ../refined-set-2016/4hwo/4hwo_pocket.pdb
REMARK  258 active torsions:
REMARK  status: ('A' for Active; 'I' for Inactive)
REMARK    1  A    between atoms: _1  and  _3
REMARK    2  A    between atoms: _3  and  _4
REMARK    3  A    between atoms: _6  and  _8
REMARK    4  A    between atoms: _8  and  _9
REMARK    5  A    between atoms: _8  and  _11
REMARK    6  A    between atoms: _14  and  _16
REMARK    7  A    between atoms: _16  and  _17
REMARK    8  A    between atoms: _16  and  _19
REMARK    9  A    between atoms: _19  and  _20
REMARK   10  A    between atoms: _25  and  _27
REMARK   11  A    between atoms: _27  and  _28
REMARK   12  A    between atoms: _27  and  _30
REMARK   13  A    between atoms: _30  and  _31
REMARK   14  A    between atoms: _36  and  _37
REMARK   15  A    between atoms: _40  and  _41
REMARK   16  A    between atoms: _46  and  _48
REMARK   17  A    between atoms: _48  and  _49
REMARK   18  A    between atoms: _48  and  _51
REMARK   19  A    between atoms: _51  and  _52
REMARK   20  A    between atoms: _52  and  _53
REMARK   21  A    between atoms: _55  and  _57
REMARK   22  A    between atoms: _57  and  _58
REMARK   23  A    between atoms: _57  and  _60
REMARK   24  A    between atoms: _60  and  _61
REMARK   25  A    between atoms: _66  and  _68
REMARK   26  A    between atoms: _68  and  _69
REMARK   27  A    between atoms: _68  and  _71
REMARK   28  A    between atoms: _71  and  _72
REMARK   29  A    between atoms: _72  and  ZN_632
REMARK   30  A    between atoms: _74  and  _75
REMARK   31  A    between atoms: _80  and  _82
REMARK   32  A    between atoms: _82  and  _83
REMARK   33  A    between atoms: _82  and  _85
REMARK   34  A    between atoms: _85  and  _86
REMARK   35  A    between atoms: _91  and  _93
REMARK   36  A    between atoms: _93  and  _94
REMARK   37  A    between atoms: _93  and  _96
REMARK   38  A    between atoms: _98  and  _100
REMARK   39  A    between atoms: _100  and  _101
REMARK   40  A    between atoms: _100  and  _103
REMARK   41  A    between atoms: _103  and  _104
REMARK   42  A    between atoms: _109  and  _111
REMARK   43  A    between atoms: _111  and  _112
REMARK   44  A    between atoms: _111  and  _114
REMARK   45  A    between atoms: _114  and  _115
REMARK   46  A    between atoms: _115  and  _116
REMARK   47  A    between atoms: _116  and  _117
REMARK   48  A    between atoms: _126  and  _128
REMARK   49  A    between atoms: _128  and  _129
REMARK   50  A    between atoms: _128  and  _131
REMARK   51  A    between atoms: _131  and  _132
REMARK   52  A    between atoms: _137  and  _139
REMARK   53  A    between atoms: _139  and  _140
REMARK   54  A    between atoms: _139  and  _142
REMARK   55  A    between atoms: _142  and  _143
REMARK   56  A    between atoms: _143  and  _144
REMARK   57  A    between atoms: _147  and  _149
REMARK   58  A    between atoms: _149  and  _150
REMARK   59  A    between atoms: _149  and  _152
REMARK   60  A    between atoms: _152  and  _153
REMARK   61  A    between atoms: _155  and  _157
REMARK   62  A    between atoms: _157  and  _158
REMARK   63  A    between atoms: _157  and  _160
REMARK   64  A    between atoms: _160  and  _161
REMARK   65  A    between atoms: _164  and  _166
REMARK   66  A    between atoms: _166  and  _167
REMARK   67  A    between atoms: _166  and  _169
REMARK   68  A    between atoms: _169  and  _170
REMARK   69  A    between atoms: _175  and  _177
REMARK   70  A    between atoms: _177  and  _178
REMARK   71  A    between atoms: _180  and  _182
REMARK   72  A    between atoms: _182  and  _183
REMARK   73  A    between atoms: _182  and  _185
REMARK   74  A    between atoms: _185  and  _186
REMARK   75  A    between atoms: _189  and  _191
REMARK   76  A    between atoms: _191  and  _192
REMARK   77  A    between atoms: _191  and  _194
REMARK   78  A    between atoms: _194  and  _195
REMARK   79  A    between atoms: _195  and  _196
REMARK   80  A    between atoms: _198  and  _200
REMARK   81  A    between atoms: _200  and  _201
REMARK   82  A    between atoms: _200  and  _203
REMARK   83  A    between atoms: _203  and  _204
REMARK   84  A    between atoms: _204  and  _205
REMARK   85  A    between atoms: _205  and  _206
REMARK   86  A    between atoms: _215  and  _217
REMARK   87  A    between atoms: _217  and  _218
REMARK   88  A    between atoms: _217  and  _220
REMARK   89  A    between atoms: _223  and  _225
REMARK   90  A    between atoms: _225  and  _226
REMARK   91  A    between atoms: _225  and  _228
REMARK   92  A    between atoms: _228  and  _229
REMARK   93  A    between atoms: _229  and  _230
REMARK   94  A    between atoms: _230  and  _231
REMARK   95  A    between atoms: _240  and  _242
REMARK   96  A    between atoms: _242  and  _243
REMARK   97  A    between atoms: _245  and  _247
REMARK   98  A    between atoms: _247  and  _248
REMARK   99  A    between atoms: _247  and  _250
REMARK  100  A    between atoms: _250  and  _251
REMARK  101  A    between atoms: _257  and  _259
REMARK  102  A    between atoms: _259  and  _260
REMARK  103  A    between atoms: _259  and  _262
REMARK  104  A    between atoms: _262  and  _263
REMARK  105  A    between atoms: _266  and  _268
REMARK  106  A    between atoms: _268  and  _269
REMARK  107  A    between atoms: _268  and  _271
REMARK  108  A    between atoms: _271  and  _272
REMARK  109  A    between atoms: _272  and  _273
REMARK  110  A    between atoms: _278  and  _280
REMARK  111  A    between atoms: _280  and  _281
REMARK  112  A    between atoms: _280  and  _283
REMARK  113  A    between atoms: _283  and  _284
REMARK  114  A    between atoms: _287  and  _289
REMARK  115  A    between atoms: _289  and  _290
REMARK  116  A    between atoms: _289  and  _292
REMARK  117  A    between atoms: _292  and  _293
REMARK  118  A    between atoms: _296  and  _298
REMARK  119  A    between atoms: _298  and  _299
REMARK  120  A    between atoms: _302  and  _304
REMARK  121  A    between atoms: _304  and  _305
REMARK  122  A    between atoms: _304  and  _307
REMARK  123  A    between atoms: _307  and  _308
REMARK  124  A    between atoms: _312  and  ZN_632
REMARK  125  A    between atoms: _313  and  _315
REMARK  126  A    between atoms: _315  and  _316
REMARK  127  A    between atoms: _315  and  _318
REMARK  128  A    between atoms: _318  and  _319
REMARK  129  A    between atoms: _322  and  _324
REMARK  130  A    between atoms: _324  and  _325
REMARK  131  A    between atoms: _324  and  _327
REMARK  132  A    between atoms: _327  and  _328
REMARK  133  A    between atoms: _330  and  _332
REMARK  134  A    between atoms: _332  and  _333
REMARK  135  A    between atoms: _332  and  _335
REMARK  136  A    between atoms: _335  and  _336
REMARK  137  A    between atoms: _336  and  _337
REMARK  138  A    between atoms: _340  and  _342
REMARK  139  A    between atoms: _342  and  _343
REMARK  140  A    between atoms: _345  and  _347
REMARK  141  A    between atoms: _347  and  _348
REMARK  142  A    between atoms: _351  and  _353
REMARK  143  A    between atoms: _353  and  _354
REMARK  144  A    between atoms: _353  and  _356
REMARK  145  A    between atoms: _356  and  _357
REMARK  146  A    between atoms: _363  and  _365
REMARK  147  A    between atoms: _365  and  _366
REMARK  148  A    between atoms: _365  and  _368
REMARK  149  A    between atoms: _368  and  _369
REMARK  150  A    between atoms: _374  and  _375
REMARK  151  A    between atoms: _377  and  _379
REMARK  152  A    between atoms: _379  and  _380
REMARK  153  A    between atoms: _379  and  _382
REMARK  154  A    between atoms: _382  and  _383
REMARK  155  A    between atoms: _383  and  _384
REMARK  156  A    between atoms: _384  and  _385
REMARK  157  A    between atoms: _385  and  _386
REMARK  158  A    between atoms: _390  and  _392
REMARK  159  A    between atoms: _392  and  _393
REMARK  160  A    between atoms: _392  and  _395
REMARK  161  A    between atoms: _395  and  _396
REMARK  162  A    between atoms: _399  and  _401
REMARK  163  A    between atoms: _401  and  _402
REMARK  164  A    between atoms: _401  and  _404
REMARK  165  A    between atoms: _404  and  _405
REMARK  166  A    between atoms: _405  and  _406
REMARK  167  A    between atoms: _409  and  _411
REMARK  168  A    between atoms: _411  and  _412
REMARK  169  A    between atoms: _411  and  _414
REMARK  170  A    between atoms: _414  and  _415
REMARK  171  A    between atoms: _425  and  _427
REMARK  172  A    between atoms: _427  and  _428
REMARK  173  A    between atoms: _427  and  _430
REMARK  174  A    between atoms: _430  and  _431
REMARK  175  A    between atoms: _431  and  _432
REMARK  176  A    between atoms: _437  and  _439
REMARK  177  A    between atoms: _439  and  _440
REMARK  178  A    between atoms: _439  and  _442
REMARK  179  A    between atoms: _444  and  _446
REMARK  180  A    between atoms: _446  and  _447
REMARK  181  A    between atoms: _449  and  _451
REMARK  182  A    between atoms: _451  and  _452
REMARK  183  A    between atoms: _451  and  _454
REMARK  184  A    between atoms: _454  and  _455
REMARK  185  A    between atoms: _458  and  _460
REMARK  186  A    between atoms: _460  and  _461
REMARK  187  A    between atoms: _460  and  _463
REMARK  188  A    between atoms: _466  and  _468
REMARK  189  A    between atoms: _468  and  _469
REMARK  190  A    between atoms: _468  and  _471
REMARK  191  A    between atoms: _471  and  _472
REMARK  192  A    between atoms: _472  and  _473
REMARK  193  A    between atoms: _478  and  _480
REMARK  194  A    between atoms: _480  and  _481
REMARK  195  A    between atoms: _480  and  _483
REMARK  196  A    between atoms: _483  and  _484
REMARK  197  A    between atoms: _487  and  _489
REMARK  198  A    between atoms: _489  and  _490
REMARK  199  A    between atoms: _489  and  _492
REMARK  200  A    between atoms: _492  and  _493
REMARK  201  A    between atoms: _496  and  _498
REMARK  202  A    between atoms: _498  and  _499
REMARK  203  A    between atoms: _498  and  _501
REMARK  204  A    between atoms: _501  and  _502
REMARK  205  A    between atoms: _502  and  _503
REMARK  206  A    between atoms: _505  and  _507
REMARK  207  A    between atoms: _507  and  _508
REMARK  208  A    between atoms: _507  and  _510
REMARK  209  A    between atoms: _510  and  _511
REMARK  210  A    between atoms: _514  and  _516
REMARK  211  A    between atoms: _516  and  _517
REMARK  212  A    between atoms: _516  and  _519
REMARK  213  A    between atoms: _519  and  _520
REMARK  214  A    between atoms: _521  and  ZN_632
REMARK  215  A    between atoms: _525  and  _527
REMARK  216  A    between atoms: _527  and  _528
REMARK  217  A    between atoms: _527  and  _530
REMARK  218  A    between atoms: _530  and  _531
REMARK  219  A    between atoms: _531  and  _532
REMARK  220  A    between atoms: _532  and  _533
REMARK  221  A    between atoms: _542  and  _544
REMARK  222  A    between atoms: _544  and  _545
REMARK  223  A    between atoms: _548  and  _550
REMARK  224  A    between atoms: _550  and  _551
REMARK  225  A    between atoms: _550  and  _553
REMARK  226  A    between atoms: _553  and  _554
REMARK  227  A    between atoms: _557  and  _559
REMARK  228  A    between atoms: _559  and  _560
REMARK  229  A    between atoms: _559  and  _562
REMARK  230  A    between atoms: _562  and  _563
REMARK  231  A    between atoms: _566  and  _568
REMARK  232  A    between atoms: _568  and  _569
REMARK  233  A    between atoms: _571  and  _573
REMARK  234  A    between atoms: _573  and  _574
REMARK  235  A    between atoms: _573  and  _576
REMARK  236  A    between atoms: _576  and  _577
REMARK  237  A    between atoms: _579  and  _581
REMARK  238  A    between atoms: _581  and  _582
REMARK  239  A    between atoms: _581  and  _584
REMARK  240  A    between atoms: _584  and  _585
REMARK  241  A    between atoms: _585  and  _586
REMARK  242  A    between atoms: _588  and  _590
REMARK  243  A    between atoms: _590  and  _591
REMARK  244  A    between atoms: _590  and  _593
REMARK  245  A    between atoms: _593  and  _594
REMARK  246  A    between atoms: _594  and  _595
REMARK  247  A    between atoms: _598  and  _600
REMARK  248  A    between atoms: _600  and  _601
REMARK  249  A    between atoms: _600  and  _603
REMARK  250  A    between atoms: _603  and  _604
REMARK  251  A    between atoms: _604  and  _605
REMARK  252  A    between atoms: _605  and  _606
REMARK  253  A    between atoms: _615  and  _617
REMARK  254  A    between atoms: _617  and  _618
REMARK  255  A    between atoms: _617  and  _620
REMARK  256  A    between atoms: _620  and  _621
REMARK  257  A    between atoms: _627  and  _629
REMARK  258  A    between atoms: _629  and  _630
REMARK                            x       y       z     vdW  Elec       q    Type
REMARK                         _______ _______ _______ _____ _____    ______ ____
ROOT
ATOM      1  O   HOH     1     -17.528 -39.133  12.152  0.00  0.00    +0.000 OA
ENDROOT
TORSDOF 0
REMARK  Name = ../refined-set-2016/4hwo/4hwo_pocket.pdb
REMARK  258 active torsions:
REMARK  status: ('A' for Active; 'I' for Inactive)
REMARK    1  A    between atoms: _1  and  _3
REMARK    2  A    between atoms: _3  and  _4
REMARK    3  A    between atoms: _6  and  _8
REMARK    4  A    between atoms: _8  and  _9
REMARK    5  A    between atoms: _8  and  _11
REMARK    6  A    between atoms: _14  and  _16
REMARK    7  A    between atoms: _16  and  _17
REMARK    8  A    between atoms: _16  and  _19
REMARK    9  A    between atoms: _19  and  _20
REMARK   10  A    between atoms: _25  and  _27
REMARK   11  A    between atoms: _27  and  _28
REMARK   12  A    between atoms: _27  and  _30
REMARK   13  A    between atoms: _30  and  _31
REMARK   14  A    between atoms: _36  and  _37
REMARK   15  A    between atoms: _40  and  _41
REMARK   16  A    between atoms: _46  and  _48
REMARK   17  A    between atoms: _48  and  _49
REMARK   18  A    between atoms: _48  and  _51
REMARK   19  A    between atoms: _51  and  _52
REMARK   20  A    between atoms: _52  and  _53
REMARK   21  A    between atoms: _55  and  _57
REMARK   22  A    between atoms: _57  and  _58
REMARK   23  A    between atoms: _57  and  _60
REMARK   24  A    between atoms: _60  and  _61
REMARK   25  A    between atoms: _66  and  _68
REMARK   26  A    between atoms: _68  and  _69
REMARK   27  A    between atoms: _68  and  _71
REMARK   28  A    between atoms: _71  and  _72
REMARK   29  A    between atoms: _72  and  ZN_632
REMARK   30  A    between atoms: _74  and  _75
REMARK   31  A    between atoms: _80  and  _82
REMARK   32  A    between atoms: _82  and  _83
REMARK   33  A    between atoms: _82  and  _85
REMARK   34  A    between atoms: _85  and  _86
REMARK   35  A    between atoms: _91  and  _93
REMARK   36  A    between atoms: _93  and  _94
REMARK   37  A    between atoms: _93  and  _96
REMARK   38  A    between atoms: _98  and  _100
REMARK   39  A    between atoms: _100  and  _101
REMARK   40  A    between atoms: _100  and  _103
REMARK   41  A    between atoms: _103  and  _104
REMARK   42  A    between atoms: _109  and  _111
REMARK   43  A    between atoms: _111  and  _112
REMARK   44  A    between atoms: _111  and  _114
REMARK   45  A    between atoms: _114  and  _115
REMARK   46  A    between atoms: _115  and  _116
REMARK   47  A    between atoms: _116  and  _117
REMARK   48  A    between atoms: _126  and  _128
REMARK   49  A    between atoms: _128  and  _129
REMARK   50  A    between atoms: _128  and  _131
REMARK   51  A    between atoms: _131  and  _132
REMARK   52  A    between atoms: _137  and  _139
REMARK   53  A    between atoms: _139  and  _140
REMARK   54  A    between atoms: _139  and  _142
REMARK   55  A    between atoms: _142  and  _143
REMARK   56  A    between atoms: _143  and  _144
REMARK   57  A    between atoms: _147  and  _149
REMARK   58  A    between atoms: _149  and  _150
REMARK   59  A    between atoms: _149  and  _152
REMARK   60  A    between atoms: _152  and  _153
REMARK   61  A    between atoms: _155  and  _157
REMARK   62  A    between atoms: _157  and  _158
REMARK   63  A    between atoms: _157  and  _160
REMARK   64  A    between atoms: _160  and  _161
REMARK   65  A    between atoms: _164  and  _166
REMARK   66  A    between atoms: _166  and  _167
REMARK   67  A    between atoms: _166  and  _169
REMARK   68  A    between atoms: _169  and  _170
REMARK   69  A    between atoms: _175  and  _177
REMARK   70  A    between atoms: _177  and  _178
REMARK   71  A    between atoms: _180  and  _182
REMARK   72  A    between atoms: _182  and  _183
REMARK   73  A    between atoms: _182  and  _185
REMARK   74  A    between atoms: _185  and  _186
REMARK   75  A    between atoms: _189  and  _191
REMARK   76  A    between atoms: _191  and  _192
REMARK   77  A    between atoms: _191  and  _194
REMARK   78  A    between atoms: _194  and  _195
REMARK   79  A    between atoms: _195  and  _196
REMARK   80  A    between atoms: _198  and  _200
REMARK   81  A    between atoms: _200  and  _201
REMARK   82  A    between atoms: _200  and  _203
REMARK   83  A    between atoms: _203  and  _204
REMARK   84  A    between atoms: _204  and  _205
REMARK   85  A    between atoms: _205  and  _206
REMARK   86  A    between atoms: _215  and  _217
REMARK   87  A    between atoms: _217  and  _218
REMARK   88  A    between atoms: _217  and  _220
REMARK   89  A    between atoms: _223  and  _225
REMARK   90  A    between atoms: _225  and  _226
REMARK   91  A    between atoms: _225  and  _228
REMARK   92  A    between atoms: _228  and  _229
REMARK   93  A    between atoms: _229  and  _230
REMARK   94  A    between atoms: _230  and  _231
REMARK   95  A    between atoms: _240  and  _242
REMARK   96  A    between atoms: _242  and  _243
REMARK   97  A    between atoms: _245  and  _247
REMARK   98  A    between atoms: _247  and  _248
REMARK   99  A    between atoms: _247  and  _250
REMARK  100  A    between atoms: _250  and  _251
REMARK  101  A    between atoms: _257  and  _259
REMARK  102  A    between atoms: _259  and  _260
REMARK  103  A    between atoms: _259  and  _262
REMARK  104  A    between atoms: _262  and  _263
REMARK  105  A    between atoms: _266  and  _268
REMARK  106  A    between atoms: _268  and  _269
REMARK  107  A    between atoms: _268  and  _271
REMARK  108  A    between atoms: _271  and  _272
REMARK  109  A    between atoms: _272  and  _273
REMARK  110  A    between atoms: _278  and  _280
REMARK  111  A    between atoms: _280  and  _281
REMARK  112  A    between atoms: _280  and  _283
REMARK  113  A    between atoms: _283  and  _284
REMARK  114  A    between atoms: _287  and  _289
REMARK  115  A    between atoms: _289  and  _290
REMARK  116  A    between atoms: _289  and  _292
REMARK  117  A    between atoms: _292  and  _293
REMARK  118  A    between atoms: _296  and  _298
REMARK  119  A    between atoms: _298  and  _299
REMARK  120  A    between atoms: _302  and  _304
REMARK  121  A    between atoms: _304  and  _305
REMARK  122  A    between atoms: _304  and  _307
REMARK  123  A    between atoms: _307  and  _308
REMARK  124  A    between atoms: _312  and  ZN_632
REMARK  125  A    between atoms: _313  and  _315
REMARK  126  A    between atoms: _315  and  _316
REMARK  127  A    between atoms: _315  and  _318
REMARK  128  A    between atoms: _318  and  _319
REMARK  129  A    between atoms: _322  and  _324
REMARK  130  A    between atoms: _324  and  _325
REMARK  131  A    between atoms: _324  and  _327
REMARK  132  A    between atoms: _327  and  _328
REMARK  133  A    between atoms: _330  and  _332
REMARK  134  A    between atoms: _332  and  _333
REMARK  135  A    between atoms: _332  and  _335
REMARK  136  A    between atoms: _335  and  _336
REMARK  137  A    between atoms: _336  and  _337
REMARK  138  A    between atoms: _340  and  _342
REMARK  139  A    between atoms: _342  and  _343
REMARK  140  A    between atoms: _345  and  _347
REMARK  141  A    between atoms: _347  and  _348
REMARK  142  A    between atoms: _351  and  _353
REMARK  143  A    between atoms: _353  and  _354
REMARK  144  A    between atoms: _353  and  _356
REMARK  145  A    between atoms: _356  and  _357
REMARK  146  A    between atoms: _363  and  _365
REMARK  147  A    between atoms: _365  and  _366
REMARK  148  A    between atoms: _365  and  _368
REMARK  149  A    between atoms: _368  and  _369
REMARK  150  A    between atoms: _374  and  _375
REMARK  151  A    between atoms: _377  and  _379
REMARK  152  A    between atoms: _379  and  _380
REMARK  153  A    between atoms: _379  and  _382
REMARK  154  A    between atoms: _382  and  _383
REMARK  155  A    between atoms: _383  and  _384
REMARK  156  A    between atoms: _384  and  _385
REMARK  157  A    between atoms: _385  and  _386
REMARK  158  A    between atoms: _390  and  _392
REMARK  159  A    between atoms: _392  and  _393
REMARK  160  A    between atoms: _392  and  _395
REMARK  161  A    between atoms: _395  and  _396
REMARK  162  A    between atoms: _399  and  _401
REMARK  163  A    between atoms: _401  and  _402
REMARK  164  A    between atoms: _401  and  _404
REMARK  165  A    between atoms: _404  and  _405
REMARK  166  A    between atoms: _405  and  _406
REMARK  167  A    between atoms: _409  and  _411
REMARK  168  A    between atoms: _411  and  _412
REMARK  169  A    between atoms: _411  and  _414
REMARK  170  A    between atoms: _414  and  _415
REMARK  171  A    between atoms: _425  and  _427
REMARK  172  A    between atoms: _427  and  _428
REMARK  173  A    between atoms: _427  and  _430
REMARK  174  A    between atoms: _430  and  _431
REMARK  175  A    between atoms: _431  and  _432
REMARK  176  A    between atoms: _437  and  _439
REMARK  177  A    between atoms: _439  and  _440
REMARK  178  A    between atoms: _439  and  _442
REMARK  179  A    between atoms: _444  and  _446
REMARK  180  A    between atoms: _446  and  _447
REMARK  181  A    between atoms: _449  and  _451
REMARK  182  A    between atoms: _451  and  _452
REMARK  183  A    between atoms: _451  and  _454
REMARK  184  A    between atoms: _454  and  _455
REMARK  185  A    between atoms: _458  and  _460
REMARK  186  A    between atoms: _460  and  _461
REMARK  187  A    between atoms: _460  and  _463
REMARK  188  A    between atoms: _466  and  _468
REMARK  189  A    between atoms: _468  and  _469
REMARK  190  A    between atoms: _468  and  _471
REMARK  191  A    between atoms: _471  and  _472
REMARK  192  A    between atoms: _472  and  _473
REMARK  193  A    between atoms: _478  and  _480
REMARK  194  A    between atoms: _480  and  _481
REMARK  195  A    between atoms: _480  and  _483
REMARK  196  A    between atoms: _483  and  _484
REMARK  197  A    between atoms: _487  and  _489
REMARK  198  A    between atoms: _489  and  _490
REMARK  199  A    between atoms: _489  and  _492
REMARK  200  A    between atoms: _492  and  _493
REMARK  201  A    between atoms: _496  and  _498
REMARK  202  A    between atoms: _498  and  _499
REMARK  203  A    between atoms: _498  and  _501
REMARK  204  A    between atoms: _501  and  _502
REMARK  205  A    between atoms: _502  and  _503
REMARK  206  A    between atoms: _505  and  _507
REMARK  207  A    between atoms: _507  and  _508
REMARK  208  A    between atoms: _507  and  _510
REMARK  209  A    between atoms: _510  and  _511
REMARK  210  A    between atoms: _514  and  _516
REMARK  211  A    between atoms: _516  and  _517
REMARK  212  A    between atoms: _516  and  _519
REMARK  213  A    between atoms: _519  and  _520
REMARK  214  A    between atoms: _521  and  ZN_632
REMARK  215  A    between atoms: _525  and  _527
REMARK  216  A    between atoms: _527  and  _528
REMARK  217  A    between atoms: _527  and  _530
REMARK  218  A    between atoms: _530  and  _531
REMARK  219  A    between atoms: _531  and  _532
REMARK  220  A    between atoms: _532  and  _533
REMARK  221  A    between atoms: _542  and  _544
REMARK  222  A    between atoms: _544  and  _545
REMARK  223  A    between atoms: _548  and  _550
REMARK  224  A    between atoms: _550  and  _551
REMARK  225  A    between atoms: _550  and  _553
REMARK  226  A    between atoms: _553  and  _554
REMARK  227  A    between atoms: _557  and  _559
REMARK  228  A    between atoms: _559  and  _560
REMARK  229  A    between atoms: _559  and  _562
REMARK  230  A    between atoms: _562  and  _563
REMARK  231  A    between atoms: _566  and  _568
REMARK  232  A    between atoms: _568  and  _569
REMARK  233  A    between atoms: _571  and  _573
REMARK  234  A    between atoms: _573  and  _574
REMARK  235  A    between atoms: _573  and  _576
REMARK  236  A    between atoms: _576  and  _577
REMARK  237  A    between atoms: _579  and  _581
REMARK  238  A    between atoms: _581  and  _582
REMARK  239  A    between atoms: _581  and  _584
REMARK  240  A    between atoms: _584  and  _585
REMARK  241  A    between atoms: _585  and  _586
REMARK  242  A    between atoms: _588  and  _590
REMARK  243  A    between atoms: _590  and  _591
REMARK  244  A    between atoms: _590  and  _593
REMARK  245  A    between atoms: _593  and  _594
REMARK  246  A    between atoms: _594  and  _595
REMARK  247  A    between atoms: _598  and  _600
REMARK  248  A    between atoms: _600  and  _601
REMARK  249  A    between atoms: _600  and  _603
REMARK  250  A    between atoms: _603  and  _604
REMARK  251  A    between atoms: _604  and  _605
REMARK  252  A    between atoms: _605  and  _606
REMARK  253  A    between atoms: _615  and  _617
REMARK  254  A    between atoms: _617  and  _618
REMARK  255  A    between atoms: _617  and  _620
REMARK  256  A    between atoms: _620  and  _621
REMARK  257  A    between atoms: _627  and  _629
REMARK  258  A    between atoms: _629  and  _630
REMARK                            x       y       z     vdW  Elec       q    Type
REMARK                         _______ _______ _______ _____ _____    ______ ____
ROOT
ATOM      1  O   HOH     1     -10.868 -43.170  12.811  0.00  0.00    +0.000 OA
ENDROOT
TORSDOF 0
REMARK  Name = ../refined-set-2016/4hwo/4hwo_pocket.pdb
REMARK  258 active torsions:
REMARK  status: ('A' for Active; 'I' for Inactive)
REMARK    1  A    between atoms: _1  and  _3
REMARK    2  A    between atoms: _3  and  _4
REMARK    3  A    between atoms: _6  and  _8
REMARK    4  A    between atoms: _8  and  _9
REMARK    5  A    between atoms: _8  and  _11
REMARK    6  A    between atoms: _14  and  _16
REMARK    7  A    between atoms: _16  and  _17
REMARK    8  A    between atoms: _16  and  _19
REMARK    9  A    between atoms: _19  and  _20
REMARK   10  A    between atoms: _25  and  _27
REMARK   11  A    between atoms: _27  and  _28
REMARK   12  A    between atoms: _27  and  _30
REMARK   13  A    between atoms: _30  and  _31
REMARK   14  A    between atoms: _36  and  _37
REMARK   15  A    between atoms: _40  and  _41
REMARK   16  A    between atoms: _46  and  _48
REMARK   17  A    between atoms: _48  and  _49
REMARK   18  A    between atoms: _48  and  _51
REMARK   19  A    between atoms: _51  and  _52
REMARK   20  A    between atoms: _52  and  _53
REMARK   21  A    between atoms: _55  and  _57
REMARK   22  A    between atoms: _57  and  _58
REMARK   23  A    between atoms: _57  and  _60
REMARK   24  A    between atoms: _60  and  _61
REMARK   25  A    between atoms: _66  and  _68
REMARK   26  A    between atoms: _68  and  _69
REMARK   27  A    between atoms: _68  and  _71
REMARK   28  A    between atoms: _71  and  _72
REMARK   29  A    between atoms: _72  and  ZN_632
REMARK   30  A    between atoms: _74  and  _75
REMARK   31  A    between atoms: _80  and  _82
REMARK   32  A    between atoms: _82  and  _83
REMARK   33  A    between atoms: _82  and  _85
REMARK   34  A    between atoms: _85  and  _86
REMARK   35  A    between atoms: _91  and  _93
REMARK   36  A    between atoms: _93  and  _94
REMARK   37  A    between atoms: _93  and  _96
REMARK   38  A    between atoms: _98  and  _100
REMARK   39  A    between atoms: _100  and  _101
REMARK   40  A    between atoms: _100  and  _103
REMARK   41  A    between atoms: _103  and  _104
REMARK   42  A    between atoms: _109  and  _111
REMARK   43  A    between atoms: _111  and  _112
REMARK   44  A    between atoms: _111  and  _114
REMARK   45  A    between atoms: _114  and  _115
REMARK   46  A    between atoms: _115  and  _116
REMARK   47  A    between atoms: _116  and  _117
REMARK   48  A    between atoms: _126  and  _128
REMARK   49  A    between atoms: _128  and  _129
REMARK   50  A    between atoms: _128  and  _131
REMARK   51  A    between atoms: _131  and  _132
REMARK   52  A    between atoms: _137  and  _139
REMARK   53  A    between atoms: _139  and  _140
REMARK   54  A    between atoms: _139  and  _142
REMARK   55  A    between atoms: _142  and  _143
REMARK   56  A    between atoms: _143  and  _144
REMARK   57  A    between atoms: _147  and  _149
REMARK   58  A    between atoms: _149  and  _150
REMARK   59  A    between atoms: _149  and  _152
REMARK   60  A    between atoms: _152  and  _153
REMARK   61  A    between atoms: _155  and  _157
REMARK   62  A    between atoms: _157  and  _158
REMARK   63  A    between atoms: _157  and  _160
REMARK   64  A    between atoms: _160  and  _161
REMARK   65  A    between atoms: _164  and  _166
REMARK   66  A    between atoms: _166  and  _167
REMARK   67  A    between atoms: _166  and  _169
REMARK   68  A    between atoms: _169  and  _170
REMARK   69  A    between atoms: _175  and  _177
REMARK   70  A    between atoms: _177  and  _178
REMARK   71  A    between atoms: _180  and  _182
REMARK   72  A    between atoms: _182  and  _183
REMARK   73  A    between atoms: _182  and  _185
REMARK   74  A    between atoms: _185  and  _186
REMARK   75  A    between atoms: _189  and  _191
REMARK   76  A    between atoms: _191  and  _192
REMARK   77  A    between atoms: _191  and  _194
REMARK   78  A    between atoms: _194  and  _195
REMARK   79  A    between atoms: _195  and  _196
REMARK   80  A    between atoms: _198  and  _200
REMARK   81  A    between atoms: _200  and  _201
REMARK   82  A    between atoms: _200  and  _203
REMARK   83  A    between atoms: _203  and  _204
REMARK   84  A    between atoms: _204  and  _205
REMARK   85  A    between atoms: _205  and  _206
REMARK   86  A    between atoms: _215  and  _217
REMARK   87  A    between atoms: _217  and  _218
REMARK   88  A    between atoms: _217  and  _220
REMARK   89  A    between atoms: _223  and  _225
REMARK   90  A    between atoms: _225  and  _226
REMARK   91  A    between atoms: _225  and  _228
REMARK   92  A    between atoms: _228  and  _229
REMARK   93  A    between atoms: _229  and  _230
REMARK   94  A    between atoms: _230  and  _231
REMARK   95  A    between atoms: _240  and  _242
REMARK   96  A    between atoms: _242  and  _243
REMARK   97  A    between atoms: _245  and  _247
REMARK   98  A    between atoms: _247  and  _248
REMARK   99  A    between atoms: _247  and  _250
REMARK  100  A    between atoms: _250  and  _251
REMARK  101  A    between atoms: _257  and  _259
REMARK  102  A    between atoms: _259  and  _260
REMARK  103  A    between atoms: _259  and  _262
REMARK  104  A    between atoms: _262  and  _263
REMARK  105  A    between atoms: _266  and  _268
REMARK  106  A    between atoms: _268  and  _269
REMARK  107  A    between atoms: _268  and  _271
REMARK  108  A    between atoms: _271  and  _272
REMARK  109  A    between atoms: _272  and  _273
REMARK  110  A    between atoms: _278  and  _280
REMARK  111  A    between atoms: _280  and  _281
REMARK  112  A    between atoms: _280  and  _283
REMARK  113  A    between atoms: _283  and  _284
REMARK  114  A    between atoms: _287  and  _289
REMARK  115  A    between atoms: _289  and  _290
REMARK  116  A    between atoms: _289  and  _292
REMARK  117  A    between atoms: _292  and  _293
REMARK  118  A    between atoms: _296  and  _298
REMARK  119  A    between atoms: _298  and  _299
REMARK  120  A    between atoms: _302  and  _304
REMARK  121  A    between atoms: _304  and  _305
REMARK  122  A    between atoms: _304  and  _307
REMARK  123  A    between atoms: _307  and  _308
REMARK  124  A    between atoms: _312  and  ZN_632
REMARK  125  A    between atoms: _313  and  _315
REMARK  126  A    between atoms: _315  and  _316
REMARK  127  A    between atoms: _315  and  _318
REMARK  128  A    between atoms: _318  and  _319
REMARK  129  A    between atoms: _322  and  _324
REMARK  130  A    between atoms: _324  and  _325
REMARK  131  A    between atoms: _324  and  _327
REMARK  132  A    between atoms: _327  and  _328
REMARK  133  A    between atoms: _330  and  _332
REMARK  134  A    between atoms: _332  and  _333
REMARK  135  A    between atoms: _332  and  _335
REMARK  136  A    between atoms: _335  and  _336
REMARK  137  A    between atoms: _336  and  _337
REMARK  138  A    between atoms: _340  and  _342
REMARK  139  A    between atoms: _342  and  _343
REMARK  140  A    between atoms: _345  and  _347
REMARK  141  A    between atoms: _347  and  _348
REMARK  142  A    between atoms: _351  and  _353
REMARK  143  A    between atoms: _353  and  _354
REMARK  144  A    between atoms: _353  and  _356
REMARK  145  A    between atoms: _356  and  _357
REMARK  146  A    between atoms: _363  and  _365
REMARK  147  A    between atoms: _365  and  _366
REMARK  148  A    between atoms: _365  and  _368
REMARK  149  A    between atoms: _368  and  _369
REMARK  150  A    between atoms: _374  and  _375
REMARK  151  A    between atoms: _377  and  _379
REMARK  152  A    between atoms: _379  and  _380
REMARK  153  A    between atoms: _379  and  _382
REMARK  154  A    between atoms: _382  and  _383
REMARK  155  A    between atoms: _383  and  _384
REMARK  156  A    between atoms: _384  and  _385
REMARK  157  A    between atoms: _385  and  _386
REMARK  158  A    between atoms: _390  and  _392
REMARK  159  A    between atoms: _392  and  _393
REMARK  160  A    between atoms: _392  and  _395
REMARK  161  A    between atoms: _395  and  _396
REMARK  162  A    between atoms: _399  and  _401
REMARK  163  A    between atoms: _401  and  _402
REMARK  164  A    between atoms: _401  and  _404
REMARK  165  A    between atoms: _404  and  _405
REMARK  166  A    between atoms: _405  and  _406
REMARK  167  A    between atoms: _409  and  _411
REMARK  168  A    between atoms: _411  and  _412
REMARK  169  A    between atoms: _411  and  _414
REMARK  170  A    between atoms: _414  and  _415
REMARK  171  A    between atoms: _425  and  _427
REMARK  172  A    between atoms: _427  and  _428
REMARK  173  A    between atoms: _427  and  _430
REMARK  174  A    between atoms: _430  and  _431
REMARK  175  A    between atoms: _431  and  _432
REMARK  176  A    between atoms: _437  and  _439
REMARK  177  A    between atoms: _439  and  _440
REMARK  178  A    between atoms: _439  and  _442
REMARK  179  A    between atoms: _444  and  _446
REMARK  180  A    between atoms: _446  and  _447
REMARK  181  A    between atoms: _449  and  _451
REMARK  182  A    between atoms: _451  and  _452
REMARK  183  A    between atoms: _451  and  _454
REMARK  184  A    between atoms: _454  and  _455
REMARK  185  A    between atoms: _458  and  _460
REMARK  186  A    between atoms: _460  and  _461
REMARK  187  A    between atoms: _460  and  _463
REMARK  188  A    between atoms: _466  and  _468
REMARK  189  A    between atoms: _468  and  _469
REMARK  190  A    between atoms: _468  and  _471
REMARK  191  A    between atoms: _471  and  _472
REMARK  192  A    between atoms: _472  and  _473
REMARK  193  A    between atoms: _478  and  _480
REMARK  194  A    between atoms: _480  and  _481
REMARK  195  A    between atoms: _480  and  _483
REMARK  196  A    between atoms: _483  and  _484
REMARK  197  A    between atoms: _487  and  _489
REMARK  198  A    between atoms: _489  and  _490
REMARK  199  A    between atoms: _489  and  _492
REMARK  200  A    between atoms: _492  and  _493
REMARK  201  A    between atoms: _496  and  _498
REMARK  202  A    between atoms: _498  and  _499
REMARK  203  A    between atoms: _498  and  _501
REMARK  204  A    between atoms: _501  and  _502
REMARK  205  A    between atoms: _502  and  _503
REMARK  206  A    between atoms: _505  and  _507
REMARK  207  A    between atoms: _507  and  _508
REMARK  208  A    between atoms: _507  and  _510
REMARK  209  A    between atoms: _510  and  _511
REMARK  210  A    between atoms: _514  and  _516
REMARK  211  A    between atoms: _516  and  _517
REMARK  212  A    between atoms: _516  and  _519
REMARK  213  A    between atoms: _519  and  _520
REMARK  214  A    between atoms: _521  and  ZN_632
REMARK  215  A    between atoms: _525  and  _527
REMARK  216  A    between atoms: _527  and  _528
REMARK  217  A    between atoms: _527  and  _530
REMARK  218  A    between atoms: _530  and  _531
REMARK  219  A    between atoms: _531  and  _532
REMARK  220  A    between atoms: _532  and  _533
REMARK  221  A    between atoms: _542  and  _544
REMARK  222  A    between atoms: _544  and  _545
REMARK  223  A    between atoms: _548  and  _550
REMARK  224  A    between atoms: _550  and  _551
REMARK  225  A    between atoms: _550  and  _553
REMARK  226  A    between atoms: _553  and  _554
REMARK  227  A    between atoms: _557  and  _559
REMARK  228  A    between atoms: _559  and  _560
REMARK  229  A    between atoms: _559  and  _562
REMARK  230  A    between atoms: _562  and  _563
REMARK  231  A    between atoms: _566  and  _568
REMARK  232  A    between atoms: _568  and  _569
REMARK  233  A    between atoms: _571  and  _573
REMARK  234  A    between atoms: _573  and  _574
REMARK  235  A    between atoms: _573  and  _576
REMARK  236  A    between atoms: _576  and  _577
REMARK  237  A    between atoms: _579  and  _581
REMARK  238  A    between atoms: _581  and  _582
REMARK  239  A    between atoms: _581  and  _584
REMARK  240  A    between atoms: _584  and  _585
REMARK  241  A    between atoms: _585  and  _586
REMARK  242  A    between atoms: _588  and  _590
REMARK  243  A    between atoms: _590  and  _591
REMARK  244  A    between atoms: _590  and  _593
REMARK  245  A    between atoms: _593  and  _594
REMARK  246  A    between atoms: _594  and  _595
REMARK  247  A    between atoms: _598  and  _600
REMARK  248  A    between atoms: _600  and  _601
REMARK  249  A    between atoms: _600  and  _603
REMARK  250  A    between atoms: _603  and  _604
REMARK  251  A    between atoms: _604  and  _605
REMARK  252  A    between atoms: _605  and  _606
REMARK  253  A    between atoms: _615  and  _617
REMARK  254  A    between atoms: _617  and  _618
REMARK  255  A    between atoms: _617  and  _620
REMARK  256  A    between atoms: _620  and  _621
REMARK  257  A    between atoms: _627  and  _629
REMARK  258  A    between atoms: _629  and  _630
REMARK                            x       y       z     vdW  Elec       q    Type
REMARK                         _______ _______ _______ _____ _____    ______ ____
ROOT
ATOM      1  O   HOH     1      -9.484 -39.475  10.213  0.00  0.00    +0.000 OA
ENDROOT
TORSDOF 0
REMARK  Name = ../refined-set-2016/4hwo/4hwo_pocket.pdb
REMARK  258 active torsions:
REMARK  status: ('A' for Active; 'I' for Inactive)
REMARK    1  A    between atoms: _1  and  _3
REMARK    2  A    between atoms: _3  and  _4
REMARK    3  A    between atoms: _6  and  _8
REMARK    4  A    between atoms: _8  and  _9
REMARK    5  A    between atoms: _8  and  _11
REMARK    6  A    between atoms: _14  and  _16
REMARK    7  A    between atoms: _16  and  _17
REMARK    8  A    between atoms: _16  and  _19
REMARK    9  A    between atoms: _19  and  _20
REMARK   10  A    between atoms: _25  and  _27
REMARK   11  A    between atoms: _27  and  _28
REMARK   12  A    between atoms: _27  and  _30
REMARK   13  A    between atoms: _30  and  _31
REMARK   14  A    between atoms: _36  and  _37
REMARK   15  A    between atoms: _40  and  _41
REMARK   16  A    between atoms: _46  and  _48
REMARK   17  A    between atoms: _48  and  _49
REMARK   18  A    between atoms: _48  and  _51
REMARK   19  A    between atoms: _51  and  _52
REMARK   20  A    between atoms: _52  and  _53
REMARK   21  A    between atoms: _55  and  _57
REMARK   22  A    between atoms: _57  and  _58
REMARK   23  A    between atoms: _57  and  _60
REMARK   24  A    between atoms: _60  and  _61
REMARK   25  A    between atoms: _66  and  _68
REMARK   26  A    between atoms: _68  and  _69
REMARK   27  A    between atoms: _68  and  _71
REMARK   28  A    between atoms: _71  and  _72
REMARK   29  A    between atoms: _72  and  ZN_632
REMARK   30  A    between atoms: _74  and  _75
REMARK   31  A    between atoms: _80  and  _82
REMARK   32  A    between atoms: _82  and  _83
REMARK   33  A    between atoms: _82  and  _85
REMARK   34  A    between atoms: _85  and  _86
REMARK   35  A    between atoms: _91  and  _93
REMARK   36  A    between atoms: _93  and  _94
REMARK   37  A    between atoms: _93  and  _96
REMARK   38  A    between atoms: _98  and  _100
REMARK   39  A    between atoms: _100  and  _101
REMARK   40  A    between atoms: _100  and  _103
REMARK   41  A    between atoms: _103  and  _104
REMARK   42  A    between atoms: _109  and  _111
REMARK   43  A    between atoms: _111  and  _112
REMARK   44  A    between atoms: _111  and  _114
REMARK   45  A    between atoms: _114  and  _115
REMARK   46  A    between atoms: _115  and  _116
REMARK   47  A    between atoms: _116  and  _117
REMARK   48  A    between atoms: _126  and  _128
REMARK   49  A    between atoms: _128  and  _129
REMARK   50  A    between atoms: _128  and  _131
REMARK   51  A    between atoms: _131  and  _132
REMARK   52  A    between atoms: _137  and  _139
REMARK   53  A    between atoms: _139  and  _140
REMARK   54  A    between atoms: _139  and  _142
REMARK   55  A    between atoms: _142  and  _143
REMARK   56  A    between atoms: _143  and  _144
REMARK   57  A    between atoms: _147  and  _149
REMARK   58  A    between atoms: _149  and  _150
REMARK   59  A    between atoms: _149  and  _152
REMARK   60  A    between atoms: _152  and  _153
REMARK   61  A    between atoms: _155  and  _157
REMARK   62  A    between atoms: _157  and  _158
REMARK   63  A    between atoms: _157  and  _160
REMARK   64  A    between atoms: _160  and  _161
REMARK   65  A    between atoms: _164  and  _166
REMARK   66  A    between atoms: _166  and  _167
REMARK   67  A    between atoms: _166  and  _169
REMARK   68  A    between atoms: _169  and  _170
REMARK   69  A    between atoms: _175  and  _177
REMARK   70  A    between atoms: _177  and  _178
REMARK   71  A    between atoms: _180  and  _182
REMARK   72  A    between atoms: _182  and  _183
REMARK   73  A    between atoms: _182  and  _185
REMARK   74  A    between atoms: _185  and  _186
REMARK   75  A    between atoms: _189  and  _191
REMARK   76  A    between atoms: _191  and  _192
REMARK   77  A    between atoms: _191  and  _194
REMARK   78  A    between atoms: _194  and  _195
REMARK   79  A    between atoms: _195  and  _196
REMARK   80  A    between atoms: _198  and  _200
REMARK   81  A    between atoms: _200  and  _201
REMARK   82  A    between atoms: _200  and  _203
REMARK   83  A    between atoms: _203  and  _204
REMARK   84  A    between atoms: _204  and  _205
REMARK   85  A    between atoms: _205  and  _206
REMARK   86  A    between atoms: _215  and  _217
REMARK   87  A    between atoms: _217  and  _218
REMARK   88  A    between atoms: _217  and  _220
REMARK   89  A    between atoms: _223  and  _225
REMARK   90  A    between atoms: _225  and  _226
REMARK   91  A    between atoms: _225  and  _228
REMARK   92  A    between atoms: _228  and  _229
REMARK   93  A    between atoms: _229  and  _230
REMARK   94  A    between atoms: _230  and  _231
REMARK   95  A    between atoms: _240  and  _242
REMARK   96  A    between atoms: _242  and  _243
REMARK   97  A    between atoms: _245  and  _247
REMARK   98  A    between atoms: _247  and  _248
REMARK   99  A    between atoms: _247  and  _250
REMARK  100  A    between atoms: _250  and  _251
REMARK  101  A    between atoms: _257  and  _259
REMARK  102  A    between atoms: _259  and  _260
REMARK  103  A    between atoms: _259  and  _262
REMARK  104  A    between atoms: _262  and  _263
REMARK  105  A    between atoms: _266  and  _268
REMARK  106  A    between atoms: _268  and  _269
REMARK  107  A    between atoms: _268  and  _271
REMARK  108  A    between atoms: _271  and  _272
REMARK  109  A    between atoms: _272  and  _273
REMARK  110  A    between atoms: _278  and  _280
REMARK  111  A    between atoms: _280  and  _281
REMARK  112  A    between atoms: _280  and  _283
REMARK  113  A    between atoms: _283  and  _284
REMARK  114  A    between atoms: _287  and  _289
REMARK  115  A    between atoms: _289  and  _290
REMARK  116  A    between atoms: _289  and  _292
REMARK  117  A    between atoms: _292  and  _293
REMARK  118  A    between atoms: _296  and  _298
REMARK  119  A    between atoms: _298  and  _299
REMARK  120  A    between atoms: _302  and  _304
REMARK  121  A    between atoms: _304  and  _305
REMARK  122  A    between atoms: _304  and  _307
REMARK  123  A    between atoms: _307  and  _308
REMARK  124  A    between atoms: _312  and  ZN_632
REMARK  125  A    between atoms: _313  and  _315
REMARK  126  A    between atoms: _315  and  _316
REMARK  127  A    between atoms: _315  and  _318
REMARK  128  A    between atoms: _318  and  _319
REMARK  129  A    between atoms: _322  and  _324
REMARK  130  A    between atoms: _324  and  _325
REMARK  131  A    between atoms: _324  and  _327
REMARK  132  A    between atoms: _327  and  _328
REMARK  133  A    between atoms: _330  and  _332
REMARK  134  A    between atoms: _332  and  _333
REMARK  135  A    between atoms: _332  and  _335
REMARK  136  A    between atoms: _335  and  _336
REMARK  137  A    between atoms: _336  and  _337
REMARK  138  A    between atoms: _340  and  _342
REMARK  139  A    between atoms: _342  and  _343
REMARK  140  A    between atoms: _345  and  _347
REMARK  141  A    between atoms: _347  and  _348
REMARK  142  A    between atoms: _351  and  _353
REMARK  143  A    between atoms: _353  and  _354
REMARK  144  A    between atoms: _353  and  _356
REMARK  145  A    between atoms: _356  and  _357
REMARK  146  A    between atoms: _363  and  _365
REMARK  147  A    between atoms: _365  and  _366
REMARK  148  A    between atoms: _365  and  _368
REMARK  149  A    between atoms: _368  and  _369
REMARK  150  A    between atoms: _374  and  _375
REMARK  151  A    between atoms: _377  and  _379
REMARK  152  A    between atoms: _379  and  _380
REMARK  153  A    between atoms: _379  and  _382
REMARK  154  A    between atoms: _382  and  _383
REMARK  155  A    between atoms: _383  and  _384
REMARK  156  A    between atoms: _384  and  _385
REMARK  157  A    between atoms: _385  and  _386
REMARK  158  A    between atoms: _390  and  _392
REMARK  159  A    between atoms: _392  and  _393
REMARK  160  A    between atoms: _392  and  _395
REMARK  161  A    between atoms: _395  and  _396
REMARK  162  A    between atoms: _399  and  _401
REMARK  163  A    between atoms: _401  and  _402
REMARK  164  A    between atoms: _401  and  _404
REMARK  165  A    between atoms: _404  and  _405
REMARK  166  A    between atoms: _405  and  _406
REMARK  167  A    between atoms: _409  and  _411
REMARK  168  A    between atoms: _411  and  _412
REMARK  169  A    between atoms: _411  and  _414
REMARK  170  A    between atoms: _414  and  _415
REMARK  171  A    between atoms: _425  and  _427
REMARK  172  A    between atoms: _427  and  _428
REMARK  173  A    between atoms: _427  and  _430
REMARK  174  A    between atoms: _430  and  _431
REMARK  175  A    between atoms: _431  and  _432
REMARK  176  A    between atoms: _437  and  _439
REMARK  177  A    between atoms: _439  and  _440
REMARK  178  A    between atoms: _439  and  _442
REMARK  179  A    between atoms: _444  and  _446
REMARK  180  A    between atoms: _446  and  _447
REMARK  181  A    between atoms: _449  and  _451
REMARK  182  A    between atoms: _451  and  _452
REMARK  183  A    between atoms: _451  and  _454
REMARK  184  A    between atoms: _454  and  _455
REMARK  185  A    between atoms: _458  and  _460
REMARK  186  A    between atoms: _460  and  _461
REMARK  187  A    between atoms: _460  and  _463
REMARK  188  A    between atoms: _466  and  _468
REMARK  189  A    between atoms: _468  and  _469
REMARK  190  A    between atoms: _468  and  _471
REMARK  191  A    between atoms: _471  and  _472
REMARK  192  A    between atoms: _472  and  _473
REMARK  193  A    between atoms: _478  and  _480
REMARK  194  A    between atoms: _480  and  _481
REMARK  195  A    between atoms: _480  and  _483
REMARK  196  A    between atoms: _483  and  _484
REMARK  197  A    between atoms: _487  and  _489
REMARK  198  A    between atoms: _489  and  _490
REMARK  199  A    between atoms: _489  and  _492
REMARK  200  A    between atoms: _492  and  _493
REMARK  201  A    between atoms: _496  and  _498
REMARK  202  A    between atoms: _498  and  _499
REMARK  203  A    between atoms: _498  and  _501
REMARK  204  A    between atoms: _501  and  _502
REMARK  205  A    between atoms: _502  and  _503
REMARK  206  A    between atoms: _505  and  _507
REMARK  207  A    between atoms: _507  and  _508
REMARK  208  A    between atoms: _507  and  _510
REMARK  209  A    between atoms: _510  and  _511
REMARK  210  A    between atoms: _514  and  _516
REMARK  211  A    between atoms: _516  and  _517
REMARK  212  A    between atoms: _516  and  _519
REMARK  213  A    between atoms: _519  and  _520
REMARK  214  A    between atoms: _521  and  ZN_632
REMARK  215  A    between atoms: _525  and  _527
REMARK  216  A    between atoms: _527  and  _528
REMARK  217  A    between atoms: _527  and  _530
REMARK  218  A    between atoms: _530  and  _531
REMARK  219  A    between atoms: _531  and  _532
REMARK  220  A    between atoms: _532  and  _533
REMARK  221  A    between atoms: _542  and  _544
REMARK  222  A    between atoms: _544  and  _545
REMARK  223  A    between atoms: _548  and  _550
REMARK  224  A    between atoms: _550  and  _551
REMARK  225  A    between atoms: _550  and  _553
REMARK  226  A    between atoms: _553  and  _554
REMARK  227  A    between atoms: _557  and  _559
REMARK  228  A    between atoms: _559  and  _560
REMARK  229  A    between atoms: _559  and  _562
REMARK  230  A    between atoms: _562  and  _563
REMARK  231  A    between atoms: _566  and  _568
REMARK  232  A    between atoms: _568  and  _569
REMARK  233  A    between atoms: _571  and  _573
REMARK  234  A    between atoms: _573  and  _574
REMARK  235  A    between atoms: _573  and  _576
REMARK  236  A    between atoms: _576  and  _577
REMARK  237  A    between atoms: _579  and  _581
REMARK  238  A    between atoms: _581  and  _582
REMARK  239  A    between atoms: _581  and  _584
REMARK  240  A    between atoms: _584  and  _585
REMARK  241  A    between atoms: _585  and  _586
REMARK  242  A    between atoms: _588  and  _590
REMARK  243  A    between atoms: _590  and  _591
REMARK  244  A    between atoms: _590  and  _593
REMARK  245  A    between atoms: _593  and  _594
REMARK  246  A    between atoms: _594  and  _595
REMARK  247  A    between atoms: _598  and  _600
REMARK  248  A    between atoms: _600  and  _601
REMARK  249  A    between atoms: _600  and  _603
REMARK  250  A    between atoms: _603  and  _604
REMARK  251  A    between atoms: _604  and  _605
REMARK  252  A    between atoms: _605  and  _606
REMARK  253  A    between atoms: _615  and  _617
REMARK  254  A    between atoms: _617  and  _618
REMARK  255  A    between atoms: _617  and  _620
REMARK  256  A    between atoms: _620  and  _621
REMARK  257  A    between atoms: _627  and  _629
REMARK  258  A    between atoms: _629  and  _630
REMARK                            x       y       z     vdW  Elec       q    Type
REMARK                         _______ _______ _______ _____ _____    ______ ____
ROOT
ATOM      1  O   HOH     1     -19.952 -41.555  13.944  0.00  0.00    +0.000 OA
ENDROOT
TORSDOF 0
REMARK  Name = ../refined-set-2016/4hwo/4hwo_pocket.pdb
REMARK  258 active torsions:
REMARK  status: ('A' for Active; 'I' for Inactive)
REMARK    1  A    between atoms: _1  and  _3
REMARK    2  A    between atoms: _3  and  _4
REMARK    3  A    between atoms: _6  and  _8
REMARK    4  A    between atoms: _8  and  _9
REMARK    5  A    between atoms: _8  and  _11
REMARK    6  A    between atoms: _14  and  _16
REMARK    7  A    between atoms: _16  and  _17
REMARK    8  A    between atoms: _16  and  _19
REMARK    9  A    between atoms: _19  and  _20
REMARK   10  A    between atoms: _25  and  _27
REMARK   11  A    between atoms: _27  and  _28
REMARK   12  A    between atoms: _27  and  _30
REMARK   13  A    between atoms: _30  and  _31
REMARK   14  A    between atoms: _36  and  _37
REMARK   15  A    between atoms: _40  and  _41
REMARK   16  A    between atoms: _46  and  _48
REMARK   17  A    between atoms: _48  and  _49
REMARK   18  A    between atoms: _48  and  _51
REMARK   19  A    between atoms: _51  and  _52
REMARK   20  A    between atoms: _52  and  _53
REMARK   21  A    between atoms: _55  and  _57
REMARK   22  A    between atoms: _57  and  _58
REMARK   23  A    between atoms: _57  and  _60
REMARK   24  A    between atoms: _60  and  _61
REMARK   25  A    between atoms: _66  and  _68
REMARK   26  A    between atoms: _68  and  _69
REMARK   27  A    between atoms: _68  and  _71
REMARK   28  A    between atoms: _71  and  _72
REMARK   29  A    between atoms: _72  and  ZN_632
REMARK   30  A    between atoms: _74  and  _75
REMARK   31  A    between atoms: _80  and  _82
REMARK   32  A    between atoms: _82  and  _83
REMARK   33  A    between atoms: _82  and  _85
REMARK   34  A    between atoms: _85  and  _86
REMARK   35  A    between atoms: _91  and  _93
REMARK   36  A    between atoms: _93  and  _94
REMARK   37  A    between atoms: _93  and  _96
REMARK   38  A    between atoms: _98  and  _100
REMARK   39  A    between atoms: _100  and  _101
REMARK   40  A    between atoms: _100  and  _103
REMARK   41  A    between atoms: _103  and  _104
REMARK   42  A    between atoms: _109  and  _111
REMARK   43  A    between atoms: _111  and  _112
REMARK   44  A    between atoms: _111  and  _114
REMARK   45  A    between atoms: _114  and  _115
REMARK   46  A    between atoms: _115  and  _116
REMARK   47  A    between atoms: _116  and  _117
REMARK   48  A    between atoms: _126  and  _128
REMARK   49  A    between atoms: _128  and  _129
REMARK   50  A    between atoms: _128  and  _131
REMARK   51  A    between atoms: _131  and  _132
REMARK   52  A    between atoms: _137  and  _139
REMARK   53  A    between atoms: _139  and  _140
REMARK   54  A    between atoms: _139  and  _142
REMARK   55  A    between atoms: _142  and  _143
REMARK   56  A    between atoms: _143  and  _144
REMARK   57  A    between atoms: _147  and  _149
REMARK   58  A    between atoms: _149  and  _150
REMARK   59  A    between atoms: _149  and  _152
REMARK   60  A    between atoms: _152  and  _153
REMARK   61  A    between atoms: _155  and  _157
REMARK   62  A    between atoms: _157  and  _158
REMARK   63  A    between atoms: _157  and  _160
REMARK   64  A    between atoms: _160  and  _161
REMARK   65  A    between atoms: _164  and  _166
REMARK   66  A    between atoms: _166  and  _167
REMARK   67  A    between atoms: _166  and  _169
REMARK   68  A    between atoms: _169  and  _170
REMARK   69  A    between atoms: _175  and  _177
REMARK   70  A    between atoms: _177  and  _178
REMARK   71  A    between atoms: _180  and  _182
REMARK   72  A    between atoms: _182  and  _183
REMARK   73  A    between atoms: _182  and  _185
REMARK   74  A    between atoms: _185  and  _186
REMARK   75  A    between atoms: _189  and  _191
REMARK   76  A    between atoms: _191  and  _192
REMARK   77  A    between atoms: _191  and  _194
REMARK   78  A    between atoms: _194  and  _195
REMARK   79  A    between atoms: _195  and  _196
REMARK   80  A    between atoms: _198  and  _200
REMARK   81  A    between atoms: _200  and  _201
REMARK   82  A    between atoms: _200  and  _203
REMARK   83  A    between atoms: _203  and  _204
REMARK   84  A    between atoms: _204  and  _205
REMARK   85  A    between atoms: _205  and  _206
REMARK   86  A    between atoms: _215  and  _217
REMARK   87  A    between atoms: _217  and  _218
REMARK   88  A    between atoms: _217  and  _220
REMARK   89  A    between atoms: _223  and  _225
REMARK   90  A    between atoms: _225  and  _226
REMARK   91  A    between atoms: _225  and  _228
REMARK   92  A    between atoms: _228  and  _229
REMARK   93  A    between atoms: _229  and  _230
REMARK   94  A    between atoms: _230  and  _231
REMARK   95  A    between atoms: _240  and  _242
REMARK   96  A    between atoms: _242  and  _243
REMARK   97  A    between atoms: _245  and  _247
REMARK   98  A    between atoms: _247  and  _248
REMARK   99  A    between atoms: _247  and  _250
REMARK  100  A    between atoms: _250  and  _251
REMARK  101  A    between atoms: _257  and  _259
REMARK  102  A    between atoms: _259  and  _260
REMARK  103  A    between atoms: _259  and  _262
REMARK  104  A    between atoms: _262  and  _263
REMARK  105  A    between atoms: _266  and  _268
REMARK  106  A    between atoms: _268  and  _269
REMARK  107  A    between atoms: _268  and  _271
REMARK  108  A    between atoms: _271  and  _272
REMARK  109  A    between atoms: _272  and  _273
REMARK  110  A    between atoms: _278  and  _280
REMARK  111  A    between atoms: _280  and  _281
REMARK  112  A    between atoms: _280  and  _283
REMARK  113  A    between atoms: _283  and  _284
REMARK  114  A    between atoms: _287  and  _289
REMARK  115  A    between atoms: _289  and  _290
REMARK  116  A    between atoms: _289  and  _292
REMARK  117  A    between atoms: _292  and  _293
REMARK  118  A    between atoms: _296  and  _298
REMARK  119  A    between atoms: _298  and  _299
REMARK  120  A    between atoms: _302  and  _304
REMARK  121  A    between atoms: _304  and  _305
REMARK  122  A    between atoms: _304  and  _307
REMARK  123  A    between atoms: _307  and  _308
REMARK  124  A    between atoms: _312  and  ZN_632
REMARK  125  A    between atoms: _313  and  _315
REMARK  126  A    between atoms: _315  and  _316
REMARK  127  A    between atoms: _315  and  _318
REMARK  128  A    between atoms: _318  and  _319
REMARK  129  A    between atoms: _322  and  _324
REMARK  130  A    between atoms: _324  and  _325
REMARK  131  A    between atoms: _324  and  _327
REMARK  132  A    between atoms: _327  and  _328
REMARK  133  A    between atoms: _330  and  _332
REMARK  134  A    between atoms: _332  and  _333
REMARK  135  A    between atoms: _332  and  _335
REMARK  136  A    between atoms: _335  and  _336
REMARK  137  A    between atoms: _336  and  _337
REMARK  138  A    between atoms: _340  and  _342
REMARK  139  A    between atoms: _342  and  _343
REMARK  140  A    between atoms: _345  and  _347
REMARK  141  A    between atoms: _347  and  _348
REMARK  142  A    between atoms: _351  and  _353
REMARK  143  A    between atoms: _353  and  _354
REMARK  144  A    between atoms: _353  and  _356
REMARK  145  A    between atoms: _356  and  _357
REMARK  146  A    between atoms: _363  and  _365
REMARK  147  A    between atoms: _365  and  _366
REMARK  148  A    between atoms: _365  and  _368
REMARK  149  A    between atoms: _368  and  _369
REMARK  150  A    between atoms: _374  and  _375
REMARK  151  A    between atoms: _377  and  _379
REMARK  152  A    between atoms: _379  and  _380
REMARK  153  A    between atoms: _379  and  _382
REMARK  154  A    between atoms: _382  and  _383
REMARK  155  A    between atoms: _383  and  _384
REMARK  156  A    between atoms: _384  and  _385
REMARK  157  A    between atoms: _385  and  _386
REMARK  158  A    between atoms: _390  and  _392
REMARK  159  A    between atoms: _392  and  _393
REMARK  160  A    between atoms: _392  and  _395
REMARK  161  A    between atoms: _395  and  _396
REMARK  162  A    between atoms: _399  and  _401
REMARK  163  A    between atoms: _401  and  _402
REMARK  164  A    between atoms: _401  and  _404
REMARK  165  A    between atoms: _404  and  _405
REMARK  166  A    between atoms: _405  and  _406
REMARK  167  A    between atoms: _409  and  _411
REMARK  168  A    between atoms: _411  and  _412
REMARK  169  A    between atoms: _411  and  _414
REMARK  170  A    between atoms: _414  and  _415
REMARK  171  A    between atoms: _425  and  _427
REMARK  172  A    between atoms: _427  and  _428
REMARK  173  A    between atoms: _427  and  _430
REMARK  174  A    between atoms: _430  and  _431
REMARK  175  A    between atoms: _431  and  _432
REMARK  176  A    between atoms: _437  and  _439
REMARK  177  A    between atoms: _439  and  _440
REMARK  178  A    between atoms: _439  and  _442
REMARK  179  A    between atoms: _444  and  _446
REMARK  180  A    between atoms: _446  and  _447
REMARK  181  A    between atoms: _449  and  _451
REMARK  182  A    between atoms: _451  and  _452
REMARK  183  A    between atoms: _451  and  _454
REMARK  184  A    between atoms: _454  and  _455
REMARK  185  A    between atoms: _458  and  _460
REMARK  186  A    between atoms: _460  and  _461
REMARK  187  A    between atoms: _460  and  _463
REMARK  188  A    between atoms: _466  and  _468
REMARK  189  A    between atoms: _468  and  _469
REMARK  190  A    between atoms: _468  and  _471
REMARK  191  A    between atoms: _471  and  _472
REMARK  192  A    between atoms: _472  and  _473
REMARK  193  A    between atoms: _478  and  _480
REMARK  194  A    between atoms: _480  and  _481
REMARK  195  A    between atoms: _480  and  _483
REMARK  196  A    between atoms: _483  and  _484
REMARK  197  A    between atoms: _487  and  _489
REMARK  198  A    between atoms: _489  and  _490
REMARK  199  A    between atoms: _489  and  _492
REMARK  200  A    between atoms: _492  and  _493
REMARK  201  A    between atoms: _496  and  _498
REMARK  202  A    between atoms: _498  and  _499
REMARK  203  A    between atoms: _498  and  _501
REMARK  204  A    between atoms: _501  and  _502
REMARK  205  A    between atoms: _502  and  _503
REMARK  206  A    between atoms: _505  and  _507
REMARK  207  A    between atoms: _507  and  _508
REMARK  208  A    between atoms: _507  and  _510
REMARK  209  A    between atoms: _510  and  _511
REMARK  210  A    between atoms: _514  and  _516
REMARK  211  A    between atoms: _516  and  _517
REMARK  212  A    between atoms: _516  and  _519
REMARK  213  A    between atoms: _519  and  _520
REMARK  214  A    between atoms: _521  and  ZN_632
REMARK  215  A    between atoms: _525  and  _527
REMARK  216  A    between atoms: _527  and  _528
REMARK  217  A    between atoms: _527  and  _530
REMARK  218  A    between atoms: _530  and  _531
REMARK  219  A    between atoms: _531  and  _532
REMARK  220  A    between atoms: _532  and  _533
REMARK  221  A    between atoms: _542  and  _544
REMARK  222  A    between atoms: _544  and  _545
REMARK  223  A    between atoms: _548  and  _550
REMARK  224  A    between atoms: _550  and  _551
REMARK  225  A    between atoms: _550  and  _553
REMARK  226  A    between atoms: _553  and  _554
REMARK  227  A    between atoms: _557  and  _559
REMARK  228  A    between atoms: _559  and  _560
REMARK  229  A    between atoms: _559  and  _562
REMARK  230  A    between atoms: _562  and  _563
REMARK  231  A    between atoms: _566  and  _568
REMARK  232  A    between atoms: _568  and  _569
REMARK  233  A    between atoms: _571  and  _573
REMARK  234  A    between atoms: _573  and  _574
REMARK  235  A    between atoms: _573  and  _576
REMARK  236  A    between atoms: _576  and  _577
REMARK  237  A    between atoms: _579  and  _581
REMARK  238  A    between atoms: _581  and  _582
REMARK  239  A    between atoms: _581  and  _584
REMARK  240  A    between atoms: _584  and  _585
REMARK  241  A    between atoms: _585  and  _586
REMARK  242  A    between atoms: _588  and  _590
REMARK  243  A    between atoms: _590  and  _591
REMARK  244  A    between atoms: _590  and  _593
REMARK  245  A    between atoms: _593  and  _594
REMARK  246  A    between atoms: _594  and  _595
REMARK  247  A    between atoms: _598  and  _600
REMARK  248  A    between atoms: _600  and  _601
REMARK  249  A    between atoms: _600  and  _603
REMARK  250  A    between atoms: _603  and  _604
REMARK  251  A    between atoms: _604  and  _605
REMARK  252  A    between atoms: _605  and  _606
REMARK  253  A    between atoms: _615  and  _617
REMARK  254  A    between atoms: _617  and  _618
REMARK  255  A    between atoms: _617  and  _620
REMARK  256  A    between atoms: _620  and  _621
REMARK  257  A    between atoms: _627  and  _629
REMARK  258  A    between atoms: _629  and  _630
REMARK                            x       y       z     vdW  Elec       q    Type
REMARK                         _______ _______ _______ _____ _____    ______ ____
ROOT
ATOM      1  O   HOH     1     -16.318 -39.430  20.903  0.00  0.00    +0.000 OA
ENDROOT
TORSDOF 0
REMARK  Name = ../refined-set-2016/4hwo/4hwo_pocket.pdb
REMARK  258 active torsions:
REMARK  status: ('A' for Active; 'I' for Inactive)
REMARK    1  A    between atoms: _1  and  _3
REMARK    2  A    between atoms: _3  and  _4
REMARK    3  A    between atoms: _6  and  _8
REMARK    4  A    between atoms: _8  and  _9
REMARK    5  A    between atoms: _8  and  _11
REMARK    6  A    between atoms: _14  and  _16
REMARK    7  A    between atoms: _16  and  _17
REMARK    8  A    between atoms: _16  and  _19
REMARK    9  A    between atoms: _19  and  _20
REMARK   10  A    between atoms: _25  and  _27
REMARK   11  A    between atoms: _27  and  _28
REMARK   12  A    between atoms: _27  and  _30
REMARK   13  A    between atoms: _30  and  _31
REMARK   14  A    between atoms: _36  and  _37
REMARK   15  A    between atoms: _40  and  _41
REMARK   16  A    between atoms: _46  and  _48
REMARK   17  A    between atoms: _48  and  _49
REMARK   18  A    between atoms: _48  and  _51
REMARK   19  A    between atoms: _51  and  _52
REMARK   20  A    between atoms: _52  and  _53
REMARK   21  A    between atoms: _55  and  _57
REMARK   22  A    between atoms: _57  and  _58
REMARK   23  A    between atoms: _57  and  _60
REMARK   24  A    between atoms: _60  and  _61
REMARK   25  A    between atoms: _66  and  _68
REMARK   26  A    between atoms: _68  and  _69
REMARK   27  A    between atoms: _68  and  _71
REMARK   28  A    between atoms: _71  and  _72
REMARK   29  A    between atoms: _72  and  ZN_632
REMARK   30  A    between atoms: _74  and  _75
REMARK   31  A    between atoms: _80  and  _82
REMARK   32  A    between atoms: _82  and  _83
REMARK   33  A    between atoms: _82  and  _85
REMARK   34  A    between atoms: _85  and  _86
REMARK   35  A    between atoms: _91  and  _93
REMARK   36  A    between atoms: _93  and  _94
REMARK   37  A    between atoms: _93  and  _96
REMARK   38  A    between atoms: _98  and  _100
REMARK   39  A    between atoms: _100  and  _101
REMARK   40  A    between atoms: _100  and  _103
REMARK   41  A    between atoms: _103  and  _104
REMARK   42  A    between atoms: _109  and  _111
REMARK   43  A    between atoms: _111  and  _112
REMARK   44  A    between atoms: _111  and  _114
REMARK   45  A    between atoms: _114  and  _115
REMARK   46  A    between atoms: _115  and  _116
REMARK   47  A    between atoms: _116  and  _117
REMARK   48  A    between atoms: _126  and  _128
REMARK   49  A    between atoms: _128  and  _129
REMARK   50  A    between atoms: _128  and  _131
REMARK   51  A    between atoms: _131  and  _132
REMARK   52  A    between atoms: _137  and  _139
REMARK   53  A    between atoms: _139  and  _140
REMARK   54  A    between atoms: _139  and  _142
REMARK   55  A    between atoms: _142  and  _143
REMARK   56  A    between atoms: _143  and  _144
REMARK   57  A    between atoms: _147  and  _149
REMARK   58  A    between atoms: _149  and  _150
REMARK   59  A    between atoms: _149  and  _152
REMARK   60  A    between atoms: _152  and  _153
REMARK   61  A    between atoms: _155  and  _157
REMARK   62  A    between atoms: _157  and  _158
REMARK   63  A    between atoms: _157  and  _160
REMARK   64  A    between atoms: _160  and  _161
REMARK   65  A    between atoms: _164  and  _166
REMARK   66  A    between atoms: _166  and  _167
REMARK   67  A    between atoms: _166  and  _169
REMARK   68  A    between atoms: _169  and  _170
REMARK   69  A    between atoms: _175  and  _177
REMARK   70  A    between atoms: _177  and  _178
REMARK   71  A    between atoms: _180  and  _182
REMARK   72  A    between atoms: _182  and  _183
REMARK   73  A    between atoms: _182  and  _185
REMARK   74  A    between atoms: _185  and  _186
REMARK   75  A    between atoms: _189  and  _191
REMARK   76  A    between atoms: _191  and  _192
REMARK   77  A    between atoms: _191  and  _194
REMARK   78  A    between atoms: _194  and  _195
REMARK   79  A    between atoms: _195  and  _196
REMARK   80  A    between atoms: _198  and  _200
REMARK   81  A    between atoms: _200  and  _201
REMARK   82  A    between atoms: _200  and  _203
REMARK   83  A    between atoms: _203  and  _204
REMARK   84  A    between atoms: _204  and  _205
REMARK   85  A    between atoms: _205  and  _206
REMARK   86  A    between atoms: _215  and  _217
REMARK   87  A    between atoms: _217  and  _218
REMARK   88  A    between atoms: _217  and  _220
REMARK   89  A    between atoms: _223  and  _225
REMARK   90  A    between atoms: _225  and  _226
REMARK   91  A    between atoms: _225  and  _228
REMARK   92  A    between atoms: _228  and  _229
REMARK   93  A    between atoms: _229  and  _230
REMARK   94  A    between atoms: _230  and  _231
REMARK   95  A    between atoms: _240  and  _242
REMARK   96  A    between atoms: _242  and  _243
REMARK   97  A    between atoms: _245  and  _247
REMARK   98  A    between atoms: _247  and  _248
REMARK   99  A    between atoms: _247  and  _250
REMARK  100  A    between atoms: _250  and  _251
REMARK  101  A    between atoms: _257  and  _259
REMARK  102  A    between atoms: _259  and  _260
REMARK  103  A    between atoms: _259  and  _262
REMARK  104  A    between atoms: _262  and  _263
REMARK  105  A    between atoms: _266  and  _268
REMARK  106  A    between atoms: _268  and  _269
REMARK  107  A    between atoms: _268  and  _271
REMARK  108  A    between atoms: _271  and  _272
REMARK  109  A    between atoms: _272  and  _273
REMARK  110  A    between atoms: _278  and  _280
REMARK  111  A    between atoms: _280  and  _281
REMARK  112  A    between atoms: _280  and  _283
REMARK  113  A    between atoms: _283  and  _284
REMARK  114  A    between atoms: _287  and  _289
REMARK  115  A    between atoms: _289  and  _290
REMARK  116  A    between atoms: _289  and  _292
REMARK  117  A    between atoms: _292  and  _293
REMARK  118  A    between atoms: _296  and  _298
REMARK  119  A    between atoms: _298  and  _299
REMARK  120  A    between atoms: _302  and  _304
REMARK  121  A    between atoms: _304  and  _305
REMARK  122  A    between atoms: _304  and  _307
REMARK  123  A    between atoms: _307  and  _308
REMARK  124  A    between atoms: _312  and  ZN_632
REMARK  125  A    between atoms: _313  and  _315
REMARK  126  A    between atoms: _315  and  _316
REMARK  127  A    between atoms: _315  and  _318
REMARK  128  A    between atoms: _318  and  _319
REMARK  129  A    between atoms: _322  and  _324
REMARK  130  A    between atoms: _324  and  _325
REMARK  131  A    between atoms: _324  and  _327
REMARK  132  A    between atoms: _327  and  _328
REMARK  133  A    between atoms: _330  and  _332
REMARK  134  A    between atoms: _332  and  _333
REMARK  135  A    between atoms: _332  and  _335
REMARK  136  A    between atoms: _335  and  _336
REMARK  137  A    between atoms: _336  and  _337
REMARK  138  A    between atoms: _340  and  _342
REMARK  139  A    between atoms: _342  and  _343
REMARK  140  A    between atoms: _345  and  _347
REMARK  141  A    between atoms: _347  and  _348
REMARK  142  A    between atoms: _351  and  _353
REMARK  143  A    between atoms: _353  and  _354
REMARK  144  A    between atoms: _353  and  _356
REMARK  145  A    between atoms: _356  and  _357
REMARK  146  A    between atoms: _363  and  _365
REMARK  147  A    between atoms: _365  and  _366
REMARK  148  A    between atoms: _365  and  _368
REMARK  149  A    between atoms: _368  and  _369
REMARK  150  A    between atoms: _374  and  _375
REMARK  151  A    between atoms: _377  and  _379
REMARK  152  A    between atoms: _379  and  _380
REMARK  153  A    between atoms: _379  and  _382
REMARK  154  A    between atoms: _382  and  _383
REMARK  155  A    between atoms: _383  and  _384
REMARK  156  A    between atoms: _384  and  _385
REMARK  157  A    between atoms: _385  and  _386
REMARK  158  A    between atoms: _390  and  _392
REMARK  159  A    between atoms: _392  and  _393
REMARK  160  A    between atoms: _392  and  _395
REMARK  161  A    between atoms: _395  and  _396
REMARK  162  A    between atoms: _399  and  _401
REMARK  163  A    between atoms: _401  and  _402
REMARK  164  A    between atoms: _401  and  _404
REMARK  165  A    between atoms: _404  and  _405
REMARK  166  A    between atoms: _405  and  _406
REMARK  167  A    between atoms: _409  and  _411
REMARK  168  A    between atoms: _411  and  _412
REMARK  169  A    between atoms: _411  and  _414
REMARK  170  A    between atoms: _414  and  _415
REMARK  171  A    between atoms: _425  and  _427
REMARK  172  A    between atoms: _427  and  _428
REMARK  173  A    between atoms: _427  and  _430
REMARK  174  A    between atoms: _430  and  _431
REMARK  175  A    between atoms: _431  and  _432
REMARK  176  A    between atoms: _437  and  _439
REMARK  177  A    between atoms: _439  and  _440
REMARK  178  A    between atoms: _439  and  _442
REMARK  179  A    between atoms: _444  and  _446
REMARK  180  A    between atoms: _446  and  _447
REMARK  181  A    between atoms: _449  and  _451
REMARK  182  A    between atoms: _451  and  _452
REMARK  183  A    between atoms: _451  and  _454
REMARK  184  A    between atoms: _454  and  _455
REMARK  185  A    between atoms: _458  and  _460
REMARK  186  A    between atoms: _460  and  _461
REMARK  187  A    between atoms: _460  and  _463
REMARK  188  A    between atoms: _466  and  _468
REMARK  189  A    between atoms: _468  and  _469
REMARK  190  A    between atoms: _468  and  _471
REMARK  191  A    between atoms: _471  and  _472
REMARK  192  A    between atoms: _472  and  _473
REMARK  193  A    between atoms: _478  and  _480
REMARK  194  A    between atoms: _480  and  _481
REMARK  195  A    between atoms: _480  and  _483
REMARK  196  A    between atoms: _483  and  _484
REMARK  197  A    between atoms: _487  and  _489
REMARK  198  A    between atoms: _489  and  _490
REMARK  199  A    between atoms: _489  and  _492
REMARK  200  A    between atoms: _492  and  _493
REMARK  201  A    between atoms: _496  and  _498
REMARK  202  A    between atoms: _498  and  _499
REMARK  203  A    between atoms: _498  and  _501
REMARK  204  A    between atoms: _501  and  _502
REMARK  205  A    between atoms: _502  and  _503
REMARK  206  A    between atoms: _505  and  _507
REMARK  207  A    between atoms: _507  and  _508
REMARK  208  A    between atoms: _507  and  _510
REMARK  209  A    between atoms: _510  and  _511
REMARK  210  A    between atoms: _514  and  _516
REMARK  211  A    between atoms: _516  and  _517
REMARK  212  A    between atoms: _516  and  _519
REMARK  213  A    between atoms: _519  and  _520
REMARK  214  A    between atoms: _521  and  ZN_632
REMARK  215  A    between atoms: _525  and  _527
REMARK  216  A    between atoms: _527  and  _528
REMARK  217  A    between atoms: _527  and  _530
REMARK  218  A    between atoms: _530  and  _531
REMARK  219  A    between atoms: _531  and  _532
REMARK  220  A    between atoms: _532  and  _533
REMARK  221  A    between atoms: _542  and  _544
REMARK  222  A    between atoms: _544  and  _545
REMARK  223  A    between atoms: _548  and  _550
REMARK  224  A    between atoms: _550  and  _551
REMARK  225  A    between atoms: _550  and  _553
REMARK  226  A    between atoms: _553  and  _554
REMARK  227  A    between atoms: _557  and  _559
REMARK  228  A    between atoms: _559  and  _560
REMARK  229  A    between atoms: _559  and  _562
REMARK  230  A    between atoms: _562  and  _563
REMARK  231  A    between atoms: _566  and  _568
REMARK  232  A    between atoms: _568  and  _569
REMARK  233  A    between atoms: _571  and  _573
REMARK  234  A    between atoms: _573  and  _574
REMARK  235  A    between atoms: _573  and  _576
REMARK  236  A    between atoms: _576  and  _577
REMARK  237  A    between atoms: _579  and  _581
REMARK  238  A    between atoms: _581  and  _582
REMARK  239  A    between atoms: _581  and  _584
REMARK  240  A    between atoms: _584  and  _585
REMARK  241  A    between atoms: _585  and  _586
REMARK  242  A    between atoms: _588  and  _590
REMARK  243  A    between atoms: _590  and  _591
REMARK  244  A    between atoms: _590  and  _593
REMARK  245  A    between atoms: _593  and  _594
REMARK  246  A    between atoms: _594  and  _595
REMARK  247  A    between atoms: _598  and  _600
REMARK  248  A    between atoms: _600  and  _601
REMARK  249  A    between atoms: _600  and  _603
REMARK  250  A    between atoms: _603  and  _604
REMARK  251  A    between atoms: _604  and  _605
REMARK  252  A    between atoms: _605  and  _606
REMARK  253  A    between atoms: _615  and  _617
REMARK  254  A    between atoms: _617  and  _618
REMARK  255  A    between atoms: _617  and  _620
REMARK  256  A    between atoms: _620  and  _621
REMARK  257  A    between atoms: _627  and  _629
REMARK  258  A    between atoms: _629  and  _630
REMARK                            x       y       z     vdW  Elec       q    Type
REMARK                         _______ _______ _______ _____ _____    ______ ____
ROOT
ATOM      1  O   HOH     1     -14.628 -40.617  12.067  0.00  0.00    +0.000 OA
ENDROOT
TORSDOF 0
REMARK  Name = ../refined-set-2016/4hwo/4hwo_pocket.pdb
REMARK  258 active torsions:
REMARK  status: ('A' for Active; 'I' for Inactive)
REMARK    1  A    between atoms: _1  and  _3
REMARK    2  A    between atoms: _3  and  _4
REMARK    3  A    between atoms: _6  and  _8
REMARK    4  A    between atoms: _8  and  _9
REMARK    5  A    between atoms: _8  and  _11
REMARK    6  A    between atoms: _14  and  _16
REMARK    7  A    between atoms: _16  and  _17
REMARK    8  A    between atoms: _16  and  _19
REMARK    9  A    between atoms: _19  and  _20
REMARK   10  A    between atoms: _25  and  _27
REMARK   11  A    between atoms: _27  and  _28
REMARK   12  A    between atoms: _27  and  _30
REMARK   13  A    between atoms: _30  and  _31
REMARK   14  A    between atoms: _36  and  _37
REMARK   15  A    between atoms: _40  and  _41
REMARK   16  A    between atoms: _46  and  _48
REMARK   17  A    between atoms: _48  and  _49
REMARK   18  A    between atoms: _48  and  _51
REMARK   19  A    between atoms: _51  and  _52
REMARK   20  A    between atoms: _52  and  _53
REMARK   21  A    between atoms: _55  and  _57
REMARK   22  A    between atoms: _57  and  _58
REMARK   23  A    between atoms: _57  and  _60
REMARK   24  A    between atoms: _60  and  _61
REMARK   25  A    between atoms: _66  and  _68
REMARK   26  A    between atoms: _68  and  _69
REMARK   27  A    between atoms: _68  and  _71
REMARK   28  A    between atoms: _71  and  _72
REMARK   29  A    between atoms: _72  and  ZN_632
REMARK   30  A    between atoms: _74  and  _75
REMARK   31  A    between atoms: _80  and  _82
REMARK   32  A    between atoms: _82  and  _83
REMARK   33  A    between atoms: _82  and  _85
REMARK   34  A    between atoms: _85  and  _86
REMARK   35  A    between atoms: _91  and  _93
REMARK   36  A    between atoms: _93  and  _94
REMARK   37  A    between atoms: _93  and  _96
REMARK   38  A    between atoms: _98  and  _100
REMARK   39  A    between atoms: _100  and  _101
REMARK   40  A    between atoms: _100  and  _103
REMARK   41  A    between atoms: _103  and  _104
REMARK   42  A    between atoms: _109  and  _111
REMARK   43  A    between atoms: _111  and  _112
REMARK   44  A    between atoms: _111  and  _114
REMARK   45  A    between atoms: _114  and  _115
REMARK   46  A    between atoms: _115  and  _116
REMARK   47  A    between atoms: _116  and  _117
REMARK   48  A    between atoms: _126  and  _128
REMARK   49  A    between atoms: _128  and  _129
REMARK   50  A    between atoms: _128  and  _131
REMARK   51  A    between atoms: _131  and  _132
REMARK   52  A    between atoms: _137  and  _139
REMARK   53  A    between atoms: _139  and  _140
REMARK   54  A    between atoms: _139  and  _142
REMARK   55  A    between atoms: _142  and  _143
REMARK   56  A    between atoms: _143  and  _144
REMARK   57  A    between atoms: _147  and  _149
REMARK   58  A    between atoms: _149  and  _150
REMARK   59  A    between atoms: _149  and  _152
REMARK   60  A    between atoms: _152  and  _153
REMARK   61  A    between atoms: _155  and  _157
REMARK   62  A    between atoms: _157  and  _158
REMARK   63  A    between atoms: _157  and  _160
REMARK   64  A    between atoms: _160  and  _161
REMARK   65  A    between atoms: _164  and  _166
REMARK   66  A    between atoms: _166  and  _167
REMARK   67  A    between atoms: _166  and  _169
REMARK   68  A    between atoms: _169  and  _170
REMARK   69  A    between atoms: _175  and  _177
REMARK   70  A    between atoms: _177  and  _178
REMARK   71  A    between atoms: _180  and  _182
REMARK   72  A    between atoms: _182  and  _183
REMARK   73  A    between atoms: _182  and  _185
REMARK   74  A    between atoms: _185  and  _186
REMARK   75  A    between atoms: _189  and  _191
REMARK   76  A    between atoms: _191  and  _192
REMARK   77  A    between atoms: _191  and  _194
REMARK   78  A    between atoms: _194  and  _195
REMARK   79  A    between atoms: _195  and  _196
REMARK   80  A    between atoms: _198  and  _200
REMARK   81  A    between atoms: _200  and  _201
REMARK   82  A    between atoms: _200  and  _203
REMARK   83  A    between atoms: _203  and  _204
REMARK   84  A    between atoms: _204  and  _205
REMARK   85  A    between atoms: _205  and  _206
REMARK   86  A    between atoms: _215  and  _217
REMARK   87  A    between atoms: _217  and  _218
REMARK   88  A    between atoms: _217  and  _220
REMARK   89  A    between atoms: _223  and  _225
REMARK   90  A    between atoms: _225  and  _226
REMARK   91  A    between atoms: _225  and  _228
REMARK   92  A    between atoms: _228  and  _229
REMARK   93  A    between atoms: _229  and  _230
REMARK   94  A    between atoms: _230  and  _231
REMARK   95  A    between atoms: _240  and  _242
REMARK   96  A    between atoms: _242  and  _243
REMARK   97  A    between atoms: _245  and  _247
REMARK   98  A    between atoms: _247  and  _248
REMARK   99  A    between atoms: _247  and  _250
REMARK  100  A    between atoms: _250  and  _251
REMARK  101  A    between atoms: _257  and  _259
REMARK  102  A    between atoms: _259  and  _260
REMARK  103  A    between atoms: _259  and  _262
REMARK  104  A    between atoms: _262  and  _263
REMARK  105  A    between atoms: _266  and  _268
REMARK  106  A    between atoms: _268  and  _269
REMARK  107  A    between atoms: _268  and  _271
REMARK  108  A    between atoms: _271  and  _272
REMARK  109  A    between atoms: _272  and  _273
REMARK  110  A    between atoms: _278  and  _280
REMARK  111  A    between atoms: _280  and  _281
REMARK  112  A    between atoms: _280  and  _283
REMARK  113  A    between atoms: _283  and  _284
REMARK  114  A    between atoms: _287  and  _289
REMARK  115  A    between atoms: _289  and  _290
REMARK  116  A    between atoms: _289  and  _292
REMARK  117  A    between atoms: _292  and  _293
REMARK  118  A    between atoms: _296  and  _298
REMARK  119  A    between atoms: _298  and  _299
REMARK  120  A    between atoms: _302  and  _304
REMARK  121  A    between atoms: _304  and  _305
REMARK  122  A    between atoms: _304  and  _307
REMARK  123  A    between atoms: _307  and  _308
REMARK  124  A    between atoms: _312  and  ZN_632
REMARK  125  A    between atoms: _313  and  _315
REMARK  126  A    between atoms: _315  and  _316
REMARK  127  A    between atoms: _315  and  _318
REMARK  128  A    between atoms: _318  and  _319
REMARK  129  A    between atoms: _322  and  _324
REMARK  130  A    between atoms: _324  and  _325
REMARK  131  A    between atoms: _324  and  _327
REMARK  132  A    between atoms: _327  and  _328
REMARK  133  A    between atoms: _330  and  _332
REMARK  134  A    between atoms: _332  and  _333
REMARK  135  A    between atoms: _332  and  _335
REMARK  136  A    between atoms: _335  and  _336
REMARK  137  A    between atoms: _336  and  _337
REMARK  138  A    between atoms: _340  and  _342
REMARK  139  A    between atoms: _342  and  _343
REMARK  140  A    between atoms: _345  and  _347
REMARK  141  A    between atoms: _347  and  _348
REMARK  142  A    between atoms: _351  and  _353
REMARK  143  A    between atoms: _353  and  _354
REMARK  144  A    between atoms: _353  and  _356
REMARK  145  A    between atoms: _356  and  _357
REMARK  146  A    between atoms: _363  and  _365
REMARK  147  A    between atoms: _365  and  _366
REMARK  148  A    between atoms: _365  and  _368
REMARK  149  A    between atoms: _368  and  _369
REMARK  150  A    between atoms: _374  and  _375
REMARK  151  A    between atoms: _377  and  _379
REMARK  152  A    between atoms: _379  and  _380
REMARK  153  A    between atoms: _379  and  _382
REMARK  154  A    between atoms: _382  and  _383
REMARK  155  A    between atoms: _383  and  _384
REMARK  156  A    between atoms: _384  and  _385
REMARK  157  A    between atoms: _385  and  _386
REMARK  158  A    between atoms: _390  and  _392
REMARK  159  A    between atoms: _392  and  _393
REMARK  160  A    between atoms: _392  and  _395
REMARK  161  A    between atoms: _395  and  _396
REMARK  162  A    between atoms: _399  and  _401
REMARK  163  A    between atoms: _401  and  _402
REMARK  164  A    between atoms: _401  and  _404
REMARK  165  A    between atoms: _404  and  _405
REMARK  166  A    between atoms: _405  and  _406
REMARK  167  A    between atoms: _409  and  _411
REMARK  168  A    between atoms: _411  and  _412
REMARK  169  A    between atoms: _411  and  _414
REMARK  170  A    between atoms: _414  and  _415
REMARK  171  A    between atoms: _425  and  _427
REMARK  172  A    between atoms: _427  and  _428
REMARK  173  A    between atoms: _427  and  _430
REMARK  174  A    between atoms: _430  and  _431
REMARK  175  A    between atoms: _431  and  _432
REMARK  176  A    between atoms: _437  and  _439
REMARK  177  A    between atoms: _439  and  _440
REMARK  178  A    between atoms: _439  and  _442
REMARK  179  A    between atoms: _444  and  _446
REMARK  180  A    between atoms: _446  and  _447
REMARK  181  A    between atoms: _449  and  _451
REMARK  182  A    between atoms: _451  and  _452
REMARK  183  A    between atoms: _451  and  _454
REMARK  184  A    between atoms: _454  and  _455
REMARK  185  A    between atoms: _458  and  _460
REMARK  186  A    between atoms: _460  and  _461
REMARK  187  A    between atoms: _460  and  _463
REMARK  188  A    between atoms: _466  and  _468
REMARK  189  A    between atoms: _468  and  _469
REMARK  190  A    between atoms: _468  and  _471
REMARK  191  A    between atoms: _471  and  _472
REMARK  192  A    between atoms: _472  and  _473
REMARK  193  A    between atoms: _478  and  _480
REMARK  194  A    between atoms: _480  and  _481
REMARK  195  A    between atoms: _480  and  _483
REMARK  196  A    between atoms: _483  and  _484
REMARK  197  A    between atoms: _487  and  _489
REMARK  198  A    between atoms: _489  and  _490
REMARK  199  A    between atoms: _489  and  _492
REMARK  200  A    between atoms: _492  and  _493
REMARK  201  A    between atoms: _496  and  _498
REMARK  202  A    between atoms: _498  and  _499
REMARK  203  A    between atoms: _498  and  _501
REMARK  204  A    between atoms: _501  and  _502
REMARK  205  A    between atoms: _502  and  _503
REMARK  206  A    between atoms: _505  and  _507
REMARK  207  A    between atoms: _507  and  _508
REMARK  208  A    between atoms: _507  and  _510
REMARK  209  A    between atoms: _510  and  _511
REMARK  210  A    between atoms: _514  and  _516
REMARK  211  A    between atoms: _516  and  _517
REMARK  212  A    between atoms: _516  and  _519
REMARK  213  A    between atoms: _519  and  _520
REMARK  214  A    between atoms: _521  and  ZN_632
REMARK  215  A    between atoms: _525  and  _527
REMARK  216  A    between atoms: _527  and  _528
REMARK  217  A    between atoms: _527  and  _530
REMARK  218  A    between atoms: _530  and  _531
REMARK  219  A    between atoms: _531  and  _532
REMARK  220  A    between atoms: _532  and  _533
REMARK  221  A    between atoms: _542  and  _544
REMARK  222  A    between atoms: _544  and  _545
REMARK  223  A    between atoms: _548  and  _550
REMARK  224  A    between atoms: _550  and  _551
REMARK  225  A    between atoms: _550  and  _553
REMARK  226  A    between atoms: _553  and  _554
REMARK  227  A    between atoms: _557  and  _559
REMARK  228  A    between atoms: _559  and  _560
REMARK  229  A    between atoms: _559  and  _562
REMARK  230  A    between atoms: _562  and  _563
REMARK  231  A    between atoms: _566  and  _568
REMARK  232  A    between atoms: _568  and  _569
REMARK  233  A    between atoms: _571  and  _573
REMARK  234  A    between atoms: _573  and  _574
REMARK  235  A    between atoms: _573  and  _576
REMARK  236  A    between atoms: _576  and  _577
REMARK  237  A    between atoms: _579  and  _581
REMARK  238  A    between atoms: _581  and  _582
REMARK  239  A    between atoms: _581  and  _584
REMARK  240  A    between atoms: _584  and  _585
REMARK  241  A    between atoms: _585  and  _586
REMARK  242  A    between atoms: _588  and  _590
REMARK  243  A    between atoms: _590  and  _591
REMARK  244  A    between atoms: _590  and  _593
REMARK  245  A    between atoms: _593  and  _594
REMARK  246  A    between atoms: _594  and  _595
REMARK  247  A    between atoms: _598  and  _600
REMARK  248  A    between atoms: _600  and  _601
REMARK  249  A    between atoms: _600  and  _603
REMARK  250  A    between atoms: _603  and  _604
REMARK  251  A    between atoms: _604  and  _605
REMARK  252  A    between atoms: _605  and  _606
REMARK  253  A    between atoms: _615  and  _617
REMARK  254  A    between atoms: _617  and  _618
REMARK  255  A    between atoms: _617  and  _620
REMARK  256  A    between atoms: _620  and  _621
REMARK  257  A    between atoms: _627  and  _629
REMARK  258  A    between atoms: _629  and  _630
REMARK                            x       y       z     vdW  Elec       q    Type
REMARK                         _______ _______ _______ _____ _____    ______ ____
ROOT
ATOM      1  O   HOH     1     -16.401 -39.447   9.867  0.00  0.00    +0.000 OA
ENDROOT
TORSDOF 0
REMARK  Name = ../refined-set-2016/4hwo/4hwo_pocket.pdb
REMARK  258 active torsions:
REMARK  status: ('A' for Active; 'I' for Inactive)
REMARK    1  A    between atoms: _1  and  _3
REMARK    2  A    between atoms: _3  and  _4
REMARK    3  A    between atoms: _6  and  _8
REMARK    4  A    between atoms: _8  and  _9
REMARK    5  A    between atoms: _8  and  _11
REMARK    6  A    between atoms: _14  and  _16
REMARK    7  A    between atoms: _16  and  _17
REMARK    8  A    between atoms: _16  and  _19
REMARK    9  A    between atoms: _19  and  _20
REMARK   10  A    between atoms: _25  and  _27
REMARK   11  A    between atoms: _27  and  _28
REMARK   12  A    between atoms: _27  and  _30
REMARK   13  A    between atoms: _30  and  _31
REMARK   14  A    between atoms: _36  and  _37
REMARK   15  A    between atoms: _40  and  _41
REMARK   16  A    between atoms: _46  and  _48
REMARK   17  A    between atoms: _48  and  _49
REMARK   18  A    between atoms: _48  and  _51
REMARK   19  A    between atoms: _51  and  _52
REMARK   20  A    between atoms: _52  and  _53
REMARK   21  A    between atoms: _55  and  _57
REMARK   22  A    between atoms: _57  and  _58
REMARK   23  A    between atoms: _57  and  _60
REMARK   24  A    between atoms: _60  and  _61
REMARK   25  A    between atoms: _66  and  _68
REMARK   26  A    between atoms: _68  and  _69
REMARK   27  A    between atoms: _68  and  _71
REMARK   28  A    between atoms: _71  and  _72
REMARK   29  A    between atoms: _72  and  ZN_632
REMARK   30  A    between atoms: _74  and  _75
REMARK   31  A    between atoms: _80  and  _82
REMARK   32  A    between atoms: _82  and  _83
REMARK   33  A    between atoms: _82  and  _85
REMARK   34  A    between atoms: _85  and  _86
REMARK   35  A    between atoms: _91  and  _93
REMARK   36  A    between atoms: _93  and  _94
REMARK   37  A    between atoms: _93  and  _96
REMARK   38  A    between atoms: _98  and  _100
REMARK   39  A    between atoms: _100  and  _101
REMARK   40  A    between atoms: _100  and  _103
REMARK   41  A    between atoms: _103  and  _104
REMARK   42  A    between atoms: _109  and  _111
REMARK   43  A    between atoms: _111  and  _112
REMARK   44  A    between atoms: _111  and  _114
REMARK   45  A    between atoms: _114  and  _115
REMARK   46  A    between atoms: _115  and  _116
REMARK   47  A    between atoms: _116  and  _117
REMARK   48  A    between atoms: _126  and  _128
REMARK   49  A    between atoms: _128  and  _129
REMARK   50  A    between atoms: _128  and  _131
REMARK   51  A    between atoms: _131  and  _132
REMARK   52  A    between atoms: _137  and  _139
REMARK   53  A    between atoms: _139  and  _140
REMARK   54  A    between atoms: _139  and  _142
REMARK   55  A    between atoms: _142  and  _143
REMARK   56  A    between atoms: _143  and  _144
REMARK   57  A    between atoms: _147  and  _149
REMARK   58  A    between atoms: _149  and  _150
REMARK   59  A    between atoms: _149  and  _152
REMARK   60  A    between atoms: _152  and  _153
REMARK   61  A    between atoms: _155  and  _157
REMARK   62  A    between atoms: _157  and  _158
REMARK   63  A    between atoms: _157  and  _160
REMARK   64  A    between atoms: _160  and  _161
REMARK   65  A    between atoms: _164  and  _166
REMARK   66  A    between atoms: _166  and  _167
REMARK   67  A    between atoms: _166  and  _169
REMARK   68  A    between atoms: _169  and  _170
REMARK   69  A    between atoms: _175  and  _177
REMARK   70  A    between atoms: _177  and  _178
REMARK   71  A    between atoms: _180  and  _182
REMARK   72  A    between atoms: _182  and  _183
REMARK   73  A    between atoms: _182  and  _185
REMARK   74  A    between atoms: _185  and  _186
REMARK   75  A    between atoms: _189  and  _191
REMARK   76  A    between atoms: _191  and  _192
REMARK   77  A    between atoms: _191  and  _194
REMARK   78  A    between atoms: _194  and  _195
REMARK   79  A    between atoms: _195  and  _196
REMARK   80  A    between atoms: _198  and  _200
REMARK   81  A    between atoms: _200  and  _201
REMARK   82  A    between atoms: _200  and  _203
REMARK   83  A    between atoms: _203  and  _204
REMARK   84  A    between atoms: _204  and  _205
REMARK   85  A    between atoms: _205  and  _206
REMARK   86  A    between atoms: _215  and  _217
REMARK   87  A    between atoms: _217  and  _218
REMARK   88  A    between atoms: _217  and  _220
REMARK   89  A    between atoms: _223  and  _225
REMARK   90  A    between atoms: _225  and  _226
REMARK   91  A    between atoms: _225  and  _228
REMARK   92  A    between atoms: _228  and  _229
REMARK   93  A    between atoms: _229  and  _230
REMARK   94  A    between atoms: _230  and  _231
REMARK   95  A    between atoms: _240  and  _242
REMARK   96  A    between atoms: _242  and  _243
REMARK   97  A    between atoms: _245  and  _247
REMARK   98  A    between atoms: _247  and  _248
REMARK   99  A    between atoms: _247  and  _250
REMARK  100  A    between atoms: _250  and  _251
REMARK  101  A    between atoms: _257  and  _259
REMARK  102  A    between atoms: _259  and  _260
REMARK  103  A    between atoms: _259  and  _262
REMARK  104  A    between atoms: _262  and  _263
REMARK  105  A    between atoms: _266  and  _268
REMARK  106  A    between atoms: _268  and  _269
REMARK  107  A    between atoms: _268  and  _271
REMARK  108  A    between atoms: _271  and  _272
REMARK  109  A    between atoms: _272  and  _273
REMARK  110  A    between atoms: _278  and  _280
REMARK  111  A    between atoms: _280  and  _281
REMARK  112  A    between atoms: _280  and  _283
REMARK  113  A    between atoms: _283  and  _284
REMARK  114  A    between atoms: _287  and  _289
REMARK  115  A    between atoms: _289  and  _290
REMARK  116  A    between atoms: _289  and  _292
REMARK  117  A    between atoms: _292  and  _293
REMARK  118  A    between atoms: _296  and  _298
REMARK  119  A    between atoms: _298  and  _299
REMARK  120  A    between atoms: _302  and  _304
REMARK  121  A    between atoms: _304  and  _305
REMARK  122  A    between atoms: _304  and  _307
REMARK  123  A    between atoms: _307  and  _308
REMARK  124  A    between atoms: _312  and  ZN_632
REMARK  125  A    between atoms: _313  and  _315
REMARK  126  A    between atoms: _315  and  _316
REMARK  127  A    between atoms: _315  and  _318
REMARK  128  A    between atoms: _318  and  _319
REMARK  129  A    between atoms: _322  and  _324
REMARK  130  A    between atoms: _324  and  _325
REMARK  131  A    between atoms: _324  and  _327
REMARK  132  A    between atoms: _327  and  _328
REMARK  133  A    between atoms: _330  and  _332
REMARK  134  A    between atoms: _332  and  _333
REMARK  135  A    between atoms: _332  and  _335
REMARK  136  A    between atoms: _335  and  _336
REMARK  137  A    between atoms: _336  and  _337
REMARK  138  A    between atoms: _340  and  _342
REMARK  139  A    between atoms: _342  and  _343
REMARK  140  A    between atoms: _345  and  _347
REMARK  141  A    between atoms: _347  and  _348
REMARK  142  A    between atoms: _351  and  _353
REMARK  143  A    between atoms: _353  and  _354
REMARK  144  A    between atoms: _353  and  _356
REMARK  145  A    between atoms: _356  and  _357
REMARK  146  A    between atoms: _363  and  _365
REMARK  147  A    between atoms: _365  and  _366
REMARK  148  A    between atoms: _365  and  _368
REMARK  149  A    between atoms: _368  and  _369
REMARK  150  A    between atoms: _374  and  _375
REMARK  151  A    between atoms: _377  and  _379
REMARK  152  A    between atoms: _379  and  _380
REMARK  153  A    between atoms: _379  and  _382
REMARK  154  A    between atoms: _382  and  _383
REMARK  155  A    between atoms: _383  and  _384
REMARK  156  A    between atoms: _384  and  _385
REMARK  157  A    between atoms: _385  and  _386
REMARK  158  A    between atoms: _390  and  _392
REMARK  159  A    between atoms: _392  and  _393
REMARK  160  A    between atoms: _392  and  _395
REMARK  161  A    between atoms: _395  and  _396
REMARK  162  A    between atoms: _399  and  _401
REMARK  163  A    between atoms: _401  and  _402
REMARK  164  A    between atoms: _401  and  _404
REMARK  165  A    between atoms: _404  and  _405
REMARK  166  A    between atoms: _405  and  _406
REMARK  167  A    between atoms: _409  and  _411
REMARK  168  A    between atoms: _411  and  _412
REMARK  169  A    between atoms: _411  and  _414
REMARK  170  A    between atoms: _414  and  _415
REMARK  171  A    between atoms: _425  and  _427
REMARK  172  A    between atoms: _427  and  _428
REMARK  173  A    between atoms: _427  and  _430
REMARK  174  A    between atoms: _430  and  _431
REMARK  175  A    between atoms: _431  and  _432
REMARK  176  A    between atoms: _437  and  _439
REMARK  177  A    between atoms: _439  and  _440
REMARK  178  A    between atoms: _439  and  _442
REMARK  179  A    between atoms: _444  and  _446
REMARK  180  A    between atoms: _446  and  _447
REMARK  181  A    between atoms: _449  and  _451
REMARK  182  A    between atoms: _451  and  _452
REMARK  183  A    between atoms: _451  and  _454
REMARK  184  A    between atoms: _454  and  _455
REMARK  185  A    between atoms: _458  and  _460
REMARK  186  A    between atoms: _460  and  _461
REMARK  187  A    between atoms: _460  and  _463
REMARK  188  A    between atoms: _466  and  _468
REMARK  189  A    between atoms: _468  and  _469
REMARK  190  A    between atoms: _468  and  _471
REMARK  191  A    between atoms: _471  and  _472
REMARK  192  A    between atoms: _472  and  _473
REMARK  193  A    between atoms: _478  and  _480
REMARK  194  A    between atoms: _480  and  _481
REMARK  195  A    between atoms: _480  and  _483
REMARK  196  A    between atoms: _483  and  _484
REMARK  197  A    between atoms: _487  and  _489
REMARK  198  A    between atoms: _489  and  _490
REMARK  199  A    between atoms: _489  and  _492
REMARK  200  A    between atoms: _492  and  _493
REMARK  201  A    between atoms: _496  and  _498
REMARK  202  A    between atoms: _498  and  _499
REMARK  203  A    between atoms: _498  and  _501
REMARK  204  A    between atoms: _501  and  _502
REMARK  205  A    between atoms: _502  and  _503
REMARK  206  A    between atoms: _505  and  _507
REMARK  207  A    between atoms: _507  and  _508
REMARK  208  A    between atoms: _507  and  _510
REMARK  209  A    between atoms: _510  and  _511
REMARK  210  A    between atoms: _514  and  _516
REMARK  211  A    between atoms: _516  and  _517
REMARK  212  A    between atoms: _516  and  _519
REMARK  213  A    between atoms: _519  and  _520
REMARK  214  A    between atoms: _521  and  ZN_632
REMARK  215  A    between atoms: _525  and  _527
REMARK  216  A    between atoms: _527  and  _528
REMARK  217  A    between atoms: _527  and  _530
REMARK  218  A    between atoms: _530  and  _531
REMARK  219  A    between atoms: _531  and  _532
REMARK  220  A    between atoms: _532  and  _533
REMARK  221  A    between atoms: _542  and  _544
REMARK  222  A    between atoms: _544  and  _545
REMARK  223  A    between atoms: _548  and  _550
REMARK  224  A    between atoms: _550  and  _551
REMARK  225  A    between atoms: _550  and  _553
REMARK  226  A    between atoms: _553  and  _554
REMARK  227  A    between atoms: _557  and  _559
REMARK  228  A    between atoms: _559  and  _560
REMARK  229  A    between atoms: _559  and  _562
REMARK  230  A    between atoms: _562  and  _563
REMARK  231  A    between atoms: _566  and  _568
REMARK  232  A    between atoms: _568  and  _569
REMARK  233  A    between atoms: _571  and  _573
REMARK  234  A    between atoms: _573  and  _574
REMARK  235  A    between atoms: _573  and  _576
REMARK  236  A    between atoms: _576  and  _577
REMARK  237  A    between atoms: _579  and  _581
REMARK  238  A    between atoms: _581  and  _582
REMARK  239  A    between atoms: _581  and  _584
REMARK  240  A    between atoms: _584  and  _585
REMARK  241  A    between atoms: _585  and  _586
REMARK  242  A    between atoms: _588  and  _590
REMARK  243  A    between atoms: _590  and  _591
REMARK  244  A    between atoms: _590  and  _593
REMARK  245  A    between atoms: _593  and  _594
REMARK  246  A    between atoms: _594  and  _595
REMARK  247  A    between atoms: _598  and  _600
REMARK  248  A    between atoms: _600  and  _601
REMARK  249  A    between atoms: _600  and  _603
REMARK  250  A    between atoms: _603  and  _604
REMARK  251  A    between atoms: _604  and  _605
REMARK  252  A    between atoms: _605  and  _606
REMARK  253  A    between atoms: _615  and  _617
REMARK  254  A    between atoms: _617  and  _618
REMARK  255  A    between atoms: _617  and  _620
REMARK  256  A    between atoms: _620  and  _621
REMARK  257  A    between atoms: _627  and  _629
REMARK  258  A    between atoms: _629  and  _630
REMARK                            x       y       z     vdW  Elec       q    Type
REMARK                         _______ _______ _______ _____ _____    ______ ____
ROOT
ATOM      1  O   HOH     1     -18.748 -39.055   8.660  0.00  0.00    +0.000 OA
ENDROOT
TORSDOF 0
REMARK  Name = ../refined-set-2016/4hwo/4hwo_pocket.pdb
REMARK  258 active torsions:
REMARK  status: ('A' for Active; 'I' for Inactive)
REMARK    1  A    between atoms: _1  and  _3
REMARK    2  A    between atoms: _3  and  _4
REMARK    3  A    between atoms: _6  and  _8
REMARK    4  A    between atoms: _8  and  _9
REMARK    5  A    between atoms: _8  and  _11
REMARK    6  A    between atoms: _14  and  _16
REMARK    7  A    between atoms: _16  and  _17
REMARK    8  A    between atoms: _16  and  _19
REMARK    9  A    between atoms: _19  and  _20
REMARK   10  A    between atoms: _25  and  _27
REMARK   11  A    between atoms: _27  and  _28
REMARK   12  A    between atoms: _27  and  _30
REMARK   13  A    between atoms: _30  and  _31
REMARK   14  A    between atoms: _36  and  _37
REMARK   15  A    between atoms: _40  and  _41
REMARK   16  A    between atoms: _46  and  _48
REMARK   17  A    between atoms: _48  and  _49
REMARK   18  A    between atoms: _48  and  _51
REMARK   19  A    between atoms: _51  and  _52
REMARK   20  A    between atoms: _52  and  _53
REMARK   21  A    between atoms: _55  and  _57
REMARK   22  A    between atoms: _57  and  _58
REMARK   23  A    between atoms: _57  and  _60
REMARK   24  A    between atoms: _60  and  _61
REMARK   25  A    between atoms: _66  and  _68
REMARK   26  A    between atoms: _68  and  _69
REMARK   27  A    between atoms: _68  and  _71
REMARK   28  A    between atoms: _71  and  _72
REMARK   29  A    between atoms: _72  and  ZN_632
REMARK   30  A    between atoms: _74  and  _75
REMARK   31  A    between atoms: _80  and  _82
REMARK   32  A    between atoms: _82  and  _83
REMARK   33  A    between atoms: _82  and  _85
REMARK   34  A    between atoms: _85  and  _86
REMARK   35  A    between atoms: _91  and  _93
REMARK   36  A    between atoms: _93  and  _94
REMARK   37  A    between atoms: _93  and  _96
REMARK   38  A    between atoms: _98  and  _100
REMARK   39  A    between atoms: _100  and  _101
REMARK   40  A    between atoms: _100  and  _103
REMARK   41  A    between atoms: _103  and  _104
REMARK   42  A    between atoms: _109  and  _111
REMARK   43  A    between atoms: _111  and  _112
REMARK   44  A    between atoms: _111  and  _114
REMARK   45  A    between atoms: _114  and  _115
REMARK   46  A    between atoms: _115  and  _116
REMARK   47  A    between atoms: _116  and  _117
REMARK   48  A    between atoms: _126  and  _128
REMARK   49  A    between atoms: _128  and  _129
REMARK   50  A    between atoms: _128  and  _131
REMARK   51  A    between atoms: _131  and  _132
REMARK   52  A    between atoms: _137  and  _139
REMARK   53  A    between atoms: _139  and  _140
REMARK   54  A    between atoms: _139  and  _142
REMARK   55  A    between atoms: _142  and  _143
REMARK   56  A    between atoms: _143  and  _144
REMARK   57  A    between atoms: _147  and  _149
REMARK   58  A    between atoms: _149  and  _150
REMARK   59  A    between atoms: _149  and  _152
REMARK   60  A    between atoms: _152  and  _153
REMARK   61  A    between atoms: _155  and  _157
REMARK   62  A    between atoms: _157  and  _158
REMARK   63  A    between atoms: _157  and  _160
REMARK   64  A    between atoms: _160  and  _161
REMARK   65  A    between atoms: _164  and  _166
REMARK   66  A    between atoms: _166  and  _167
REMARK   67  A    between atoms: _166  and  _169
REMARK   68  A    between atoms: _169  and  _170
REMARK   69  A    between atoms: _175  and  _177
REMARK   70  A    between atoms: _177  and  _178
REMARK   71  A    between atoms: _180  and  _182
REMARK   72  A    between atoms: _182  and  _183
REMARK   73  A    between atoms: _182  and  _185
REMARK   74  A    between atoms: _185  and  _186
REMARK   75  A    between atoms: _189  and  _191
REMARK   76  A    between atoms: _191  and  _192
REMARK   77  A    between atoms: _191  and  _194
REMARK   78  A    between atoms: _194  and  _195
REMARK   79  A    between atoms: _195  and  _196
REMARK   80  A    between atoms: _198  and  _200
REMARK   81  A    between atoms: _200  and  _201
REMARK   82  A    between atoms: _200  and  _203
REMARK   83  A    between atoms: _203  and  _204
REMARK   84  A    between atoms: _204  and  _205
REMARK   85  A    between atoms: _205  and  _206
REMARK   86  A    between atoms: _215  and  _217
REMARK   87  A    between atoms: _217  and  _218
REMARK   88  A    between atoms: _217  and  _220
REMARK   89  A    between atoms: _223  and  _225
REMARK   90  A    between atoms: _225  and  _226
REMARK   91  A    between atoms: _225  and  _228
REMARK   92  A    between atoms: _228  and  _229
REMARK   93  A    between atoms: _229  and  _230
REMARK   94  A    between atoms: _230  and  _231
REMARK   95  A    between atoms: _240  and  _242
REMARK   96  A    between atoms: _242  and  _243
REMARK   97  A    between atoms: _245  and  _247
REMARK   98  A    between atoms: _247  and  _248
REMARK   99  A    between atoms: _247  and  _250
REMARK  100  A    between atoms: _250  and  _251
REMARK  101  A    between atoms: _257  and  _259
REMARK  102  A    between atoms: _259  and  _260
REMARK  103  A    between atoms: _259  and  _262
REMARK  104  A    between atoms: _262  and  _263
REMARK  105  A    between atoms: _266  and  _268
REMARK  106  A    between atoms: _268  and  _269
REMARK  107  A    between atoms: _268  and  _271
REMARK  108  A    between atoms: _271  and  _272
REMARK  109  A    between atoms: _272  and  _273
REMARK  110  A    between atoms: _278  and  _280
REMARK  111  A    between atoms: _280  and  _281
REMARK  112  A    between atoms: _280  and  _283
REMARK  113  A    between atoms: _283  and  _284
REMARK  114  A    between atoms: _287  and  _289
REMARK  115  A    between atoms: _289  and  _290
REMARK  116  A    between atoms: _289  and  _292
REMARK  117  A    between atoms: _292  and  _293
REMARK  118  A    between atoms: _296  and  _298
REMARK  119  A    between atoms: _298  and  _299
REMARK  120  A    between atoms: _302  and  _304
REMARK  121  A    between atoms: _304  and  _305
REMARK  122  A    between atoms: _304  and  _307
REMARK  123  A    between atoms: _307  and  _308
REMARK  124  A    between atoms: _312  and  ZN_632
REMARK  125  A    between atoms: _313  and  _315
REMARK  126  A    between atoms: _315  and  _316
REMARK  127  A    between atoms: _315  and  _318
REMARK  128  A    between atoms: _318  and  _319
REMARK  129  A    between atoms: _322  and  _324
REMARK  130  A    between atoms: _324  and  _325
REMARK  131  A    between atoms: _324  and  _327
REMARK  132  A    between atoms: _327  and  _328
REMARK  133  A    between atoms: _330  and  _332
REMARK  134  A    between atoms: _332  and  _333
REMARK  135  A    between atoms: _332  and  _335
REMARK  136  A    between atoms: _335  and  _336
REMARK  137  A    between atoms: _336  and  _337
REMARK  138  A    between atoms: _340  and  _342
REMARK  139  A    between atoms: _342  and  _343
REMARK  140  A    between atoms: _345  and  _347
REMARK  141  A    between atoms: _347  and  _348
REMARK  142  A    between atoms: _351  and  _353
REMARK  143  A    between atoms: _353  and  _354
REMARK  144  A    between atoms: _353  and  _356
REMARK  145  A    between atoms: _356  and  _357
REMARK  146  A    between atoms: _363  and  _365
REMARK  147  A    between atoms: _365  and  _366
REMARK  148  A    between atoms: _365  and  _368
REMARK  149  A    between atoms: _368  and  _369
REMARK  150  A    between atoms: _374  and  _375
REMARK  151  A    between atoms: _377  and  _379
REMARK  152  A    between atoms: _379  and  _380
REMARK  153  A    between atoms: _379  and  _382
REMARK  154  A    between atoms: _382  and  _383
REMARK  155  A    between atoms: _383  and  _384
REMARK  156  A    between atoms: _384  and  _385
REMARK  157  A    between atoms: _385  and  _386
REMARK  158  A    between atoms: _390  and  _392
REMARK  159  A    between atoms: _392  and  _393
REMARK  160  A    between atoms: _392  and  _395
REMARK  161  A    between atoms: _395  and  _396
REMARK  162  A    between atoms: _399  and  _401
REMARK  163  A    between atoms: _401  and  _402
REMARK  164  A    between atoms: _401  and  _404
REMARK  165  A    between atoms: _404  and  _405
REMARK  166  A    between atoms: _405  and  _406
REMARK  167  A    between atoms: _409  and  _411
REMARK  168  A    between atoms: _411  and  _412
REMARK  169  A    between atoms: _411  and  _414
REMARK  170  A    between atoms: _414  and  _415
REMARK  171  A    between atoms: _425  and  _427
REMARK  172  A    between atoms: _427  and  _428
REMARK  173  A    between atoms: _427  and  _430
REMARK  174  A    between atoms: _430  and  _431
REMARK  175  A    between atoms: _431  and  _432
REMARK  176  A    between atoms: _437  and  _439
REMARK  177  A    between atoms: _439  and  _440
REMARK  178  A    between atoms: _439  and  _442
REMARK  179  A    between atoms: _444  and  _446
REMARK  180  A    between atoms: _446  and  _447
REMARK  181  A    between atoms: _449  and  _451
REMARK  182  A    between atoms: _451  and  _452
REMARK  183  A    between atoms: _451  and  _454
REMARK  184  A    between atoms: _454  and  _455
REMARK  185  A    between atoms: _458  and  _460
REMARK  186  A    between atoms: _460  and  _461
REMARK  187  A    between atoms: _460  and  _463
REMARK  188  A    between atoms: _466  and  _468
REMARK  189  A    between atoms: _468  and  _469
REMARK  190  A    between atoms: _468  and  _471
REMARK  191  A    between atoms: _471  and  _472
REMARK  192  A    between atoms: _472  and  _473
REMARK  193  A    between atoms: _478  and  _480
REMARK  194  A    between atoms: _480  and  _481
REMARK  195  A    between atoms: _480  and  _483
REMARK  196  A    between atoms: _483  and  _484
REMARK  197  A    between atoms: _487  and  _489
REMARK  198  A    between atoms: _489  and  _490
REMARK  199  A    between atoms: _489  and  _492
REMARK  200  A    between atoms: _492  and  _493
REMARK  201  A    between atoms: _496  and  _498
REMARK  202  A    between atoms: _498  and  _499
REMARK  203  A    between atoms: _498  and  _501
REMARK  204  A    between atoms: _501  and  _502
REMARK  205  A    between atoms: _502  and  _503
REMARK  206  A    between atoms: _505  and  _507
REMARK  207  A    between atoms: _507  and  _508
REMARK  208  A    between atoms: _507  and  _510
REMARK  209  A    between atoms: _510  and  _511
REMARK  210  A    between atoms: _514  and  _516
REMARK  211  A    between atoms: _516  and  _517
REMARK  212  A    between atoms: _516  and  _519
REMARK  213  A    between atoms: _519  and  _520
REMARK  214  A    between atoms: _521  and  ZN_632
REMARK  215  A    between atoms: _525  and  _527
REMARK  216  A    between atoms: _527  and  _528
REMARK  217  A    between atoms: _527  and  _530
REMARK  218  A    between atoms: _530  and  _531
REMARK  219  A    between atoms: _531  and  _532
REMARK  220  A    between atoms: _532  and  _533
REMARK  221  A    between atoms: _542  and  _544
REMARK  222  A    between atoms: _544  and  _545
REMARK  223  A    between atoms: _548  and  _550
REMARK  224  A    between atoms: _550  and  _551
REMARK  225  A    between atoms: _550  and  _553
REMARK  226  A    between atoms: _553  and  _554
REMARK  227  A    between atoms: _557  and  _559
REMARK  228  A    between atoms: _559  and  _560
REMARK  229  A    between atoms: _559  and  _562
REMARK  230  A    between atoms: _562  and  _563
REMARK  231  A    between atoms: _566  and  _568
REMARK  232  A    between atoms: _568  and  _569
REMARK  233  A    between atoms: _571  and  _573
REMARK  234  A    between atoms: _573  and  _574
REMARK  235  A    between atoms: _573  and  _576
REMARK  236  A    between atoms: _576  and  _577
REMARK  237  A    between atoms: _579  and  _581
REMARK  238  A    between atoms: _581  and  _582
REMARK  239  A    between atoms: _581  and  _584
REMARK  240  A    between atoms: _584  and  _585
REMARK  241  A    between atoms: _585  and  _586
REMARK  242  A    between atoms: _588  and  _590
REMARK  243  A    between atoms: _590  and  _591
REMARK  244  A    between atoms: _590  and  _593
REMARK  245  A    between atoms: _593  and  _594
REMARK  246  A    between atoms: _594  and  _595
REMARK  247  A    between atoms: _598  and  _600
REMARK  248  A    between atoms: _600  and  _601
REMARK  249  A    between atoms: _600  and  _603
REMARK  250  A    between atoms: _603  and  _604
REMARK  251  A    between atoms: _604  and  _605
REMARK  252  A    between atoms: _605  and  _606
REMARK  253  A    between atoms: _615  and  _617
REMARK  254  A    between atoms: _617  and  _618
REMARK  255  A    between atoms: _617  and  _620
REMARK  256  A    between atoms: _620  and  _621
REMARK  257  A    between atoms: _627  and  _629
REMARK  258  A    between atoms: _629  and  _630
REMARK                            x       y       z     vdW  Elec       q    Type
REMARK                         _______ _______ _______ _____ _____    ______ ____
ROOT
ATOM      1  O   HOH     1     -17.258 -41.990  16.512  0.00  0.00    +0.000 OA
ENDROOT
TORSDOF 0
REMARK  Name = ../refined-set-2016/4hwo/4hwo_pocket.pdb
REMARK  258 active torsions:
REMARK  status: ('A' for Active; 'I' for Inactive)
REMARK    1  A    between atoms: _1  and  _3
REMARK    2  A    between atoms: _3  and  _4
REMARK    3  A    between atoms: _6  and  _8
REMARK    4  A    between atoms: _8  and  _9
REMARK    5  A    between atoms: _8  and  _11
REMARK    6  A    between atoms: _14  and  _16
REMARK    7  A    between atoms: _16  and  _17
REMARK    8  A    between atoms: _16  and  _19
REMARK    9  A    between atoms: _19  and  _20
REMARK   10  A    between atoms: _25  and  _27
REMARK   11  A    between atoms: _27  and  _28
REMARK   12  A    between atoms: _27  and  _30
REMARK   13  A    between atoms: _30  and  _31
REMARK   14  A    between atoms: _36  and  _37
REMARK   15  A    between atoms: _40  and  _41
REMARK   16  A    between atoms: _46  and  _48
REMARK   17  A    between atoms: _48  and  _49
REMARK   18  A    between atoms: _48  and  _51
REMARK   19  A    between atoms: _51  and  _52
REMARK   20  A    between atoms: _52  and  _53
REMARK   21  A    between atoms: _55  and  _57
REMARK   22  A    between atoms: _57  and  _58
REMARK   23  A    between atoms: _57  and  _60
REMARK   24  A    between atoms: _60  and  _61
REMARK   25  A    between atoms: _66  and  _68
REMARK   26  A    between atoms: _68  and  _69
REMARK   27  A    between atoms: _68  and  _71
REMARK   28  A    between atoms: _71  and  _72
REMARK   29  A    between atoms: _72  and  ZN_632
REMARK   30  A    between atoms: _74  and  _75
REMARK   31  A    between atoms: _80  and  _82
REMARK   32  A    between atoms: _82  and  _83
REMARK   33  A    between atoms: _82  and  _85
REMARK   34  A    between atoms: _85  and  _86
REMARK   35  A    between atoms: _91  and  _93
REMARK   36  A    between atoms: _93  and  _94
REMARK   37  A    between atoms: _93  and  _96
REMARK   38  A    between atoms: _98  and  _100
REMARK   39  A    between atoms: _100  and  _101
REMARK   40  A    between atoms: _100  and  _103
REMARK   41  A    between atoms: _103  and  _104
REMARK   42  A    between atoms: _109  and  _111
REMARK   43  A    between atoms: _111  and  _112
REMARK   44  A    between atoms: _111  and  _114
REMARK   45  A    between atoms: _114  and  _115
REMARK   46  A    between atoms: _115  and  _116
REMARK   47  A    between atoms: _116  and  _117
REMARK   48  A    between atoms: _126  and  _128
REMARK   49  A    between atoms: _128  and  _129
REMARK   50  A    between atoms: _128  and  _131
REMARK   51  A    between atoms: _131  and  _132
REMARK   52  A    between atoms: _137  and  _139
REMARK   53  A    between atoms: _139  and  _140
REMARK   54  A    between atoms: _139  and  _142
REMARK   55  A    between atoms: _142  and  _143
REMARK   56  A    between atoms: _143  and  _144
REMARK   57  A    between atoms: _147  and  _149
REMARK   58  A    between atoms: _149  and  _150
REMARK   59  A    between atoms: _149  and  _152
REMARK   60  A    between atoms: _152  and  _153
REMARK   61  A    between atoms: _155  and  _157
REMARK   62  A    between atoms: _157  and  _158
REMARK   63  A    between atoms: _157  and  _160
REMARK   64  A    between atoms: _160  and  _161
REMARK   65  A    between atoms: _164  and  _166
REMARK   66  A    between atoms: _166  and  _167
REMARK   67  A    between atoms: _166  and  _169
REMARK   68  A    between atoms: _169  and  _170
REMARK   69  A    between atoms: _175  and  _177
REMARK   70  A    between atoms: _177  and  _178
REMARK   71  A    between atoms: _180  and  _182
REMARK   72  A    between atoms: _182  and  _183
REMARK   73  A    between atoms: _182  and  _185
REMARK   74  A    between atoms: _185  and  _186
REMARK   75  A    between atoms: _189  and  _191
REMARK   76  A    between atoms: _191  and  _192
REMARK   77  A    between atoms: _191  and  _194
REMARK   78  A    between atoms: _194  and  _195
REMARK   79  A    between atoms: _195  and  _196
REMARK   80  A    between atoms: _198  and  _200
REMARK   81  A    between atoms: _200  and  _201
REMARK   82  A    between atoms: _200  and  _203
REMARK   83  A    between atoms: _203  and  _204
REMARK   84  A    between atoms: _204  and  _205
REMARK   85  A    between atoms: _205  and  _206
REMARK   86  A    between atoms: _215  and  _217
REMARK   87  A    between atoms: _217  and  _218
REMARK   88  A    between atoms: _217  and  _220
REMARK   89  A    between atoms: _223  and  _225
REMARK   90  A    between atoms: _225  and  _226
REMARK   91  A    between atoms: _225  and  _228
REMARK   92  A    between atoms: _228  and  _229
REMARK   93  A    between atoms: _229  and  _230
REMARK   94  A    between atoms: _230  and  _231
REMARK   95  A    between atoms: _240  and  _242
REMARK   96  A    between atoms: _242  and  _243
REMARK   97  A    between atoms: _245  and  _247
REMARK   98  A    between atoms: _247  and  _248
REMARK   99  A    between atoms: _247  and  _250
REMARK  100  A    between atoms: _250  and  _251
REMARK  101  A    between atoms: _257  and  _259
REMARK  102  A    between atoms: _259  and  _260
REMARK  103  A    between atoms: _259  and  _262
REMARK  104  A    between atoms: _262  and  _263
REMARK  105  A    between atoms: _266  and  _268
REMARK  106  A    between atoms: _268  and  _269
REMARK  107  A    between atoms: _268  and  _271
REMARK  108  A    between atoms: _271  and  _272
REMARK  109  A    between atoms: _272  and  _273
REMARK  110  A    between atoms: _278  and  _280
REMARK  111  A    between atoms: _280  and  _281
REMARK  112  A    between atoms: _280  and  _283
REMARK  113  A    between atoms: _283  and  _284
REMARK  114  A    between atoms: _287  and  _289
REMARK  115  A    between atoms: _289  and  _290
REMARK  116  A    between atoms: _289  and  _292
REMARK  117  A    between atoms: _292  and  _293
REMARK  118  A    between atoms: _296  and  _298
REMARK  119  A    between atoms: _298  and  _299
REMARK  120  A    between atoms: _302  and  _304
REMARK  121  A    between atoms: _304  and  _305
REMARK  122  A    between atoms: _304  and  _307
REMARK  123  A    between atoms: _307  and  _308
REMARK  124  A    between atoms: _312  and  ZN_632
REMARK  125  A    between atoms: _313  and  _315
REMARK  126  A    between atoms: _315  and  _316
REMARK  127  A    between atoms: _315  and  _318
REMARK  128  A    between atoms: _318  and  _319
REMARK  129  A    between atoms: _322  and  _324
REMARK  130  A    between atoms: _324  and  _325
REMARK  131  A    between atoms: _324  and  _327
REMARK  132  A    between atoms: _327  and  _328
REMARK  133  A    between atoms: _330  and  _332
REMARK  134  A    between atoms: _332  and  _333
REMARK  135  A    between atoms: _332  and  _335
REMARK  136  A    between atoms: _335  and  _336
REMARK  137  A    between atoms: _336  and  _337
REMARK  138  A    between atoms: _340  and  _342
REMARK  139  A    between atoms: _342  and  _343
REMARK  140  A    between atoms: _345  and  _347
REMARK  141  A    between atoms: _347  and  _348
REMARK  142  A    between atoms: _351  and  _353
REMARK  143  A    between atoms: _353  and  _354
REMARK  144  A    between atoms: _353  and  _356
REMARK  145  A    between atoms: _356  and  _357
REMARK  146  A    between atoms: _363  and  _365
REMARK  147  A    between atoms: _365  and  _366
REMARK  148  A    between atoms: _365  and  _368
REMARK  149  A    between atoms: _368  and  _369
REMARK  150  A    between atoms: _374  and  _375
REMARK  151  A    between atoms: _377  and  _379
REMARK  152  A    between atoms: _379  and  _380
REMARK  153  A    between atoms: _379  and  _382
REMARK  154  A    between atoms: _382  and  _383
REMARK  155  A    between atoms: _383  and  _384
REMARK  156  A    between atoms: _384  and  _385
REMARK  157  A    between atoms: _385  and  _386
REMARK  158  A    between atoms: _390  and  _392
REMARK  159  A    between atoms: _392  and  _393
REMARK  160  A    between atoms: _392  and  _395
REMARK  161  A    between atoms: _395  and  _396
REMARK  162  A    between atoms: _399  and  _401
REMARK  163  A    between atoms: _401  and  _402
REMARK  164  A    between atoms: _401  and  _404
REMARK  165  A    between atoms: _404  and  _405
REMARK  166  A    between atoms: _405  and  _406
REMARK  167  A    between atoms: _409  and  _411
REMARK  168  A    between atoms: _411  and  _412
REMARK  169  A    between atoms: _411  and  _414
REMARK  170  A    between atoms: _414  and  _415
REMARK  171  A    between atoms: _425  and  _427
REMARK  172  A    between atoms: _427  and  _428
REMARK  173  A    between atoms: _427  and  _430
REMARK  174  A    between atoms: _430  and  _431
REMARK  175  A    between atoms: _431  and  _432
REMARK  176  A    between atoms: _437  and  _439
REMARK  177  A    between atoms: _439  and  _440
REMARK  178  A    between atoms: _439  and  _442
REMARK  179  A    between atoms: _444  and  _446
REMARK  180  A    between atoms: _446  and  _447
REMARK  181  A    between atoms: _449  and  _451
REMARK  182  A    between atoms: _451  and  _452
REMARK  183  A    between atoms: _451  and  _454
REMARK  184  A    between atoms: _454  and  _455
REMARK  185  A    between atoms: _458  and  _460
REMARK  186  A    between atoms: _460  and  _461
REMARK  187  A    between atoms: _460  and  _463
REMARK  188  A    between atoms: _466  and  _468
REMARK  189  A    between atoms: _468  and  _469
REMARK  190  A    between atoms: _468  and  _471
REMARK  191  A    between atoms: _471  and  _472
REMARK  192  A    between atoms: _472  and  _473
REMARK  193  A    between atoms: _478  and  _480
REMARK  194  A    between atoms: _480  and  _481
REMARK  195  A    between atoms: _480  and  _483
REMARK  196  A    between atoms: _483  and  _484
REMARK  197  A    between atoms: _487  and  _489
REMARK  198  A    between atoms: _489  and  _490
REMARK  199  A    between atoms: _489  and  _492
REMARK  200  A    between atoms: _492  and  _493
REMARK  201  A    between atoms: _496  and  _498
REMARK  202  A    between atoms: _498  and  _499
REMARK  203  A    between atoms: _498  and  _501
REMARK  204  A    between atoms: _501  and  _502
REMARK  205  A    between atoms: _502  and  _503
REMARK  206  A    between atoms: _505  and  _507
REMARK  207  A    between atoms: _507  and  _508
REMARK  208  A    between atoms: _507  and  _510
REMARK  209  A    between atoms: _510  and  _511
REMARK  210  A    between atoms: _514  and  _516
REMARK  211  A    between atoms: _516  and  _517
REMARK  212  A    between atoms: _516  and  _519
REMARK  213  A    between atoms: _519  and  _520
REMARK  214  A    between atoms: _521  and  ZN_632
REMARK  215  A    between atoms: _525  and  _527
REMARK  216  A    between atoms: _527  and  _528
REMARK  217  A    between atoms: _527  and  _530
REMARK  218  A    between atoms: _530  and  _531
REMARK  219  A    between atoms: _531  and  _532
REMARK  220  A    between atoms: _532  and  _533
REMARK  221  A    between atoms: _542  and  _544
REMARK  222  A    between atoms: _544  and  _545
REMARK  223  A    between atoms: _548  and  _550
REMARK  224  A    between atoms: _550  and  _551
REMARK  225  A    between atoms: _550  and  _553
REMARK  226  A    between atoms: _553  and  _554
REMARK  227  A    between atoms: _557  and  _559
REMARK  228  A    between atoms: _559  and  _560
REMARK  229  A    between atoms: _559  and  _562
REMARK  230  A    between atoms: _562  and  _563
REMARK  231  A    between atoms: _566  and  _568
REMARK  232  A    between atoms: _568  and  _569
REMARK  233  A    between atoms: _571  and  _573
REMARK  234  A    between atoms: _573  and  _574
REMARK  235  A    between atoms: _573  and  _576
REMARK  236  A    between atoms: _576  and  _577
REMARK  237  A    between atoms: _579  and  _581
REMARK  238  A    between atoms: _581  and  _582
REMARK  239  A    between atoms: _581  and  _584
REMARK  240  A    between atoms: _584  and  _585
REMARK  241  A    between atoms: _585  and  _586
REMARK  242  A    between atoms: _588  and  _590
REMARK  243  A    between atoms: _590  and  _591
REMARK  244  A    between atoms: _590  and  _593
REMARK  245  A    between atoms: _593  and  _594
REMARK  246  A    between atoms: _594  and  _595
REMARK  247  A    between atoms: _598  and  _600
REMARK  248  A    between atoms: _600  and  _601
REMARK  249  A    between atoms: _600  and  _603
REMARK  250  A    between atoms: _603  and  _604
REMARK  251  A    between atoms: _604  and  _605
REMARK  252  A    between atoms: _605  and  _606
REMARK  253  A    between atoms: _615  and  _617
REMARK  254  A    between atoms: _617  and  _618
REMARK  255  A    between atoms: _617  and  _620
REMARK  256  A    between atoms: _620  and  _621
REMARK  257  A    between atoms: _627  and  _629
REMARK  258  A    between atoms: _629  and  _630
REMARK                            x       y       z     vdW  Elec       q    Type
REMARK                         _______ _______ _______ _____ _____    ______ ____
ROOT
ATOM      1  O   HOH     1     -15.704 -40.797  14.601  0.00  0.00    +0.000 OA
ENDROOT
TORSDOF 0
REMARK  Name = ../refined-set-2016/4hwo/4hwo_pocket.pdb
REMARK  258 active torsions:
REMARK  status: ('A' for Active; 'I' for Inactive)
REMARK    1  A    between atoms: _1  and  _3
REMARK    2  A    between atoms: _3  and  _4
REMARK    3  A    between atoms: _6  and  _8
REMARK    4  A    between atoms: _8  and  _9
REMARK    5  A    between atoms: _8  and  _11
REMARK    6  A    between atoms: _14  and  _16
REMARK    7  A    between atoms: _16  and  _17
REMARK    8  A    between atoms: _16  and  _19
REMARK    9  A    between atoms: _19  and  _20
REMARK   10  A    between atoms: _25  and  _27
REMARK   11  A    between atoms: _27  and  _28
REMARK   12  A    between atoms: _27  and  _30
REMARK   13  A    between atoms: _30  and  _31
REMARK   14  A    between atoms: _36  and  _37
REMARK   15  A    between atoms: _40  and  _41
REMARK   16  A    between atoms: _46  and  _48
REMARK   17  A    between atoms: _48  and  _49
REMARK   18  A    between atoms: _48  and  _51
REMARK   19  A    between atoms: _51  and  _52
REMARK   20  A    between atoms: _52  and  _53
REMARK   21  A    between atoms: _55  and  _57
REMARK   22  A    between atoms: _57  and  _58
REMARK   23  A    between atoms: _57  and  _60
REMARK   24  A    between atoms: _60  and  _61
REMARK   25  A    between atoms: _66  and  _68
REMARK   26  A    between atoms: _68  and  _69
REMARK   27  A    between atoms: _68  and  _71
REMARK   28  A    between atoms: _71  and  _72
REMARK   29  A    between atoms: _72  and  ZN_632
REMARK   30  A    between atoms: _74  and  _75
REMARK   31  A    between atoms: _80  and  _82
REMARK   32  A    between atoms: _82  and  _83
REMARK   33  A    between atoms: _82  and  _85
REMARK   34  A    between atoms: _85  and  _86
REMARK   35  A    between atoms: _91  and  _93
REMARK   36  A    between atoms: _93  and  _94
REMARK   37  A    between atoms: _93  and  _96
REMARK   38  A    between atoms: _98  and  _100
REMARK   39  A    between atoms: _100  and  _101
REMARK   40  A    between atoms: _100  and  _103
REMARK   41  A    between atoms: _103  and  _104
REMARK   42  A    between atoms: _109  and  _111
REMARK   43  A    between atoms: _111  and  _112
REMARK   44  A    between atoms: _111  and  _114
REMARK   45  A    between atoms: _114  and  _115
REMARK   46  A    between atoms: _115  and  _116
REMARK   47  A    between atoms: _116  and  _117
REMARK   48  A    between atoms: _126  and  _128
REMARK   49  A    between atoms: _128  and  _129
REMARK   50  A    between atoms: _128  and  _131
REMARK   51  A    between atoms: _131  and  _132
REMARK   52  A    between atoms: _137  and  _139
REMARK   53  A    between atoms: _139  and  _140
REMARK   54  A    between atoms: _139  and  _142
REMARK   55  A    between atoms: _142  and  _143
REMARK   56  A    between atoms: _143  and  _144
REMARK   57  A    between atoms: _147  and  _149
REMARK   58  A    between atoms: _149  and  _150
REMARK   59  A    between atoms: _149  and  _152
REMARK   60  A    between atoms: _152  and  _153
REMARK   61  A    between atoms: _155  and  _157
REMARK   62  A    between atoms: _157  and  _158
REMARK   63  A    between atoms: _157  and  _160
REMARK   64  A    between atoms: _160  and  _161
REMARK   65  A    between atoms: _164  and  _166
REMARK   66  A    between atoms: _166  and  _167
REMARK   67  A    between atoms: _166  and  _169
REMARK   68  A    between atoms: _169  and  _170
REMARK   69  A    between atoms: _175  and  _177
REMARK   70  A    between atoms: _177  and  _178
REMARK   71  A    between atoms: _180  and  _182
REMARK   72  A    between atoms: _182  and  _183
REMARK   73  A    between atoms: _182  and  _185
REMARK   74  A    between atoms: _185  and  _186
REMARK   75  A    between atoms: _189  and  _191
REMARK   76  A    between atoms: _191  and  _192
REMARK   77  A    between atoms: _191  and  _194
REMARK   78  A    between atoms: _194  and  _195
REMARK   79  A    between atoms: _195  and  _196
REMARK   80  A    between atoms: _198  and  _200
REMARK   81  A    between atoms: _200  and  _201
REMARK   82  A    between atoms: _200  and  _203
REMARK   83  A    between atoms: _203  and  _204
REMARK   84  A    between atoms: _204  and  _205
REMARK   85  A    between atoms: _205  and  _206
REMARK   86  A    between atoms: _215  and  _217
REMARK   87  A    between atoms: _217  and  _218
REMARK   88  A    between atoms: _217  and  _220
REMARK   89  A    between atoms: _223  and  _225
REMARK   90  A    between atoms: _225  and  _226
REMARK   91  A    between atoms: _225  and  _228
REMARK   92  A    between atoms: _228  and  _229
REMARK   93  A    between atoms: _229  and  _230
REMARK   94  A    between atoms: _230  and  _231
REMARK   95  A    between atoms: _240  and  _242
REMARK   96  A    between atoms: _242  and  _243
REMARK   97  A    between atoms: _245  and  _247
REMARK   98  A    between atoms: _247  and  _248
REMARK   99  A    between atoms: _247  and  _250
REMARK  100  A    between atoms: _250  and  _251
REMARK  101  A    between atoms: _257  and  _259
REMARK  102  A    between atoms: _259  and  _260
REMARK  103  A    between atoms: _259  and  _262
REMARK  104  A    between atoms: _262  and  _263
REMARK  105  A    between atoms: _266  and  _268
REMARK  106  A    between atoms: _268  and  _269
REMARK  107  A    between atoms: _268  and  _271
REMARK  108  A    between atoms: _271  and  _272
REMARK  109  A    between atoms: _272  and  _273
REMARK  110  A    between atoms: _278  and  _280
REMARK  111  A    between atoms: _280  and  _281
REMARK  112  A    between atoms: _280  and  _283
REMARK  113  A    between atoms: _283  and  _284
REMARK  114  A    between atoms: _287  and  _289
REMARK  115  A    between atoms: _289  and  _290
REMARK  116  A    between atoms: _289  and  _292
REMARK  117  A    between atoms: _292  and  _293
REMARK  118  A    between atoms: _296  and  _298
REMARK  119  A    between atoms: _298  and  _299
REMARK  120  A    between atoms: _302  and  _304
REMARK  121  A    between atoms: _304  and  _305
REMARK  122  A    between atoms: _304  and  _307
REMARK  123  A    between atoms: _307  and  _308
REMARK  124  A    between atoms: _312  and  ZN_632
REMARK  125  A    between atoms: _313  and  _315
REMARK  126  A    between atoms: _315  and  _316
REMARK  127  A    between atoms: _315  and  _318
REMARK  128  A    between atoms: _318  and  _319
REMARK  129  A    between atoms: _322  and  _324
REMARK  130  A    between atoms: _324  and  _325
REMARK  131  A    between atoms: _324  and  _327
REMARK  132  A    between atoms: _327  and  _328
REMARK  133  A    between atoms: _330  and  _332
REMARK  134  A    between atoms: _332  and  _333
REMARK  135  A    between atoms: _332  and  _335
REMARK  136  A    between atoms: _335  and  _336
REMARK  137  A    between atoms: _336  and  _337
REMARK  138  A    between atoms: _340  and  _342
REMARK  139  A    between atoms: _342  and  _343
REMARK  140  A    between atoms: _345  and  _347
REMARK  141  A    between atoms: _347  and  _348
REMARK  142  A    between atoms: _351  and  _353
REMARK  143  A    between atoms: _353  and  _354
REMARK  144  A    between atoms: _353  and  _356
REMARK  145  A    between atoms: _356  and  _357
REMARK  146  A    between atoms: _363  and  _365
REMARK  147  A    between atoms: _365  and  _366
REMARK  148  A    between atoms: _365  and  _368
REMARK  149  A    between atoms: _368  and  _369
REMARK  150  A    between atoms: _374  and  _375
REMARK  151  A    between atoms: _377  and  _379
REMARK  152  A    between atoms: _379  and  _380
REMARK  153  A    between atoms: _379  and  _382
REMARK  154  A    between atoms: _382  and  _383
REMARK  155  A    between atoms: _383  and  _384
REMARK  156  A    between atoms: _384  and  _385
REMARK  157  A    between atoms: _385  and  _386
REMARK  158  A    between atoms: _390  and  _392
REMARK  159  A    between atoms: _392  and  _393
REMARK  160  A    between atoms: _392  and  _395
REMARK  161  A    between atoms: _395  and  _396
REMARK  162  A    between atoms: _399  and  _401
REMARK  163  A    between atoms: _401  and  _402
REMARK  164  A    between atoms: _401  and  _404
REMARK  165  A    between atoms: _404  and  _405
REMARK  166  A    between atoms: _405  and  _406
REMARK  167  A    between atoms: _409  and  _411
REMARK  168  A    between atoms: _411  and  _412
REMARK  169  A    between atoms: _411  and  _414
REMARK  170  A    between atoms: _414  and  _415
REMARK  171  A    between atoms: _425  and  _427
REMARK  172  A    between atoms: _427  and  _428
REMARK  173  A    between atoms: _427  and  _430
REMARK  174  A    between atoms: _430  and  _431
REMARK  175  A    between atoms: _431  and  _432
REMARK  176  A    between atoms: _437  and  _439
REMARK  177  A    between atoms: _439  and  _440
REMARK  178  A    between atoms: _439  and  _442
REMARK  179  A    between atoms: _444  and  _446
REMARK  180  A    between atoms: _446  and  _447
REMARK  181  A    between atoms: _449  and  _451
REMARK  182  A    between atoms: _451  and  _452
REMARK  183  A    between atoms: _451  and  _454
REMARK  184  A    between atoms: _454  and  _455
REMARK  185  A    between atoms: _458  and  _460
REMARK  186  A    between atoms: _460  and  _461
REMARK  187  A    between atoms: _460  and  _463
REMARK  188  A    between atoms: _466  and  _468
REMARK  189  A    between atoms: _468  and  _469
REMARK  190  A    between atoms: _468  and  _471
REMARK  191  A    between atoms: _471  and  _472
REMARK  192  A    between atoms: _472  and  _473
REMARK  193  A    between atoms: _478  and  _480
REMARK  194  A    between atoms: _480  and  _481
REMARK  195  A    between atoms: _480  and  _483
REMARK  196  A    between atoms: _483  and  _484
REMARK  197  A    between atoms: _487  and  _489
REMARK  198  A    between atoms: _489  and  _490
REMARK  199  A    between atoms: _489  and  _492
REMARK  200  A    between atoms: _492  and  _493
REMARK  201  A    between atoms: _496  and  _498
REMARK  202  A    between atoms: _498  and  _499
REMARK  203  A    between atoms: _498  and  _501
REMARK  204  A    between atoms: _501  and  _502
REMARK  205  A    between atoms: _502  and  _503
REMARK  206  A    between atoms: _505  and  _507
REMARK  207  A    between atoms: _507  and  _508
REMARK  208  A    between atoms: _507  and  _510
REMARK  209  A    between atoms: _510  and  _511
REMARK  210  A    between atoms: _514  and  _516
REMARK  211  A    between atoms: _516  and  _517
REMARK  212  A    between atoms: _516  and  _519
REMARK  213  A    between atoms: _519  and  _520
REMARK  214  A    between atoms: _521  and  ZN_632
REMARK  215  A    between atoms: _525  and  _527
REMARK  216  A    between atoms: _527  and  _528
REMARK  217  A    between atoms: _527  and  _530
REMARK  218  A    between atoms: _530  and  _531
REMARK  219  A    between atoms: _531  and  _532
REMARK  220  A    between atoms: _532  and  _533
REMARK  221  A    between atoms: _542  and  _544
REMARK  222  A    between atoms: _544  and  _545
REMARK  223  A    between atoms: _548  and  _550
REMARK  224  A    between atoms: _550  and  _551
REMARK  225  A    between atoms: _550  and  _553
REMARK  226  A    between atoms: _553  and  _554
REMARK  227  A    between atoms: _557  and  _559
REMARK  228  A    between atoms: _559  and  _560
REMARK  229  A    between atoms: _559  and  _562
REMARK  230  A    between atoms: _562  and  _563
REMARK  231  A    between atoms: _566  and  _568
REMARK  232  A    between atoms: _568  and  _569
REMARK  233  A    between atoms: _571  and  _573
REMARK  234  A    between atoms: _573  and  _574
REMARK  235  A    between atoms: _573  and  _576
REMARK  236  A    between atoms: _576  and  _577
REMARK  237  A    between atoms: _579  and  _581
REMARK  238  A    between atoms: _581  and  _582
REMARK  239  A    between atoms: _581  and  _584
REMARK  240  A    between atoms: _584  and  _585
REMARK  241  A    between atoms: _585  and  _586
REMARK  242  A    between atoms: _588  and  _590
REMARK  243  A    between atoms: _590  and  _591
REMARK  244  A    between atoms: _590  and  _593
REMARK  245  A    between atoms: _593  and  _594
REMARK  246  A    between atoms: _594  and  _595
REMARK  247  A    between atoms: _598  and  _600
REMARK  248  A    between atoms: _600  and  _601
REMARK  249  A    between atoms: _600  and  _603
REMARK  250  A    between atoms: _603  and  _604
REMARK  251  A    between atoms: _604  and  _605
REMARK  252  A    between atoms: _605  and  _606
REMARK  253  A    between atoms: _615  and  _617
REMARK  254  A    between atoms: _617  and  _618
REMARK  255  A    between atoms: _617  and  _620
REMARK  256  A    between atoms: _620  and  _621
REMARK  257  A    between atoms: _627  and  _629
REMARK  258  A    between atoms: _629  and  _630
REMARK                            x       y       z     vdW  Elec       q    Type
REMARK                         _______ _______ _______ _____ _____    ______ ____
ROOT
ATOM      1  O   HOH     1     -16.426 -42.533  13.445  0.00  0.00    +0.000 OA
ENDROOT
TORSDOF 0
