REMARK  Name = ../refined-set-2016/3mjl/3mjl_pocket.pdb
REMARK  107 active torsions:
REMARK  status: ('A' for Active; 'I' for Inactive)
REMARK    1  A    between atoms: _1  and  _3
REMARK    2  A    between atoms: _3  and  _4
REMARK    3  A    between atoms: _6  and  _8
REMARK    4  A    between atoms: _8  and  _9
REMARK    5  A    between atoms: _8  and  _11
REMARK    6  A    between atoms: _11  and  _12
REMARK    7  A    between atoms: _12  and  _13
REMARK    8  A    between atoms: _18  and  _20
REMARK    9  A    between atoms: _20  and  _21
REMARK   10  A    between atoms: _20  and  _23
REMARK   11  A    between atoms: _23  and  _24
REMARK   12  A    between atoms: _24  and  _25
REMARK   13  A    between atoms: _25  and  _26
REMARK   14  A    between atoms: _35  and  _37
REMARK   15  A    between atoms: _37  and  _38
REMARK   16  A    between atoms: _37  and  _40
REMARK   17  A    between atoms: _40  and  _41
REMARK   18  A    between atoms: _42  and  MN_301
REMARK   19  A    between atoms: _46  and  _48
REMARK   20  A    between atoms: _48  and  _49
REMARK   21  A    between atoms: _48  and  _51
REMARK   22  A    between atoms: _51  and  _52
REMARK   23  A    between atoms: _62  and  _64
REMARK   24  A    between atoms: _90  and  _93
REMARK   25  A    between atoms: _93  and  _94
REMARK   26  A    between atoms: _99  and  _100
REMARK   27  A    between atoms: _106  and  _108
REMARK   28  A    between atoms: _108  and  _109
REMARK   29  A    between atoms: _108  and  _111
REMARK   30  A    between atoms: _111  and  _112
REMARK   31  A    between atoms: _115  and  _117
REMARK   32  A    between atoms: _117  and  _118
REMARK   33  A    between atoms: _117  and  _120
REMARK   34  A    between atoms: _120  and  _121
REMARK   35  A    between atoms: _126  and  _128
REMARK   36  A    between atoms: _128  and  _129
REMARK   37  A    between atoms: _128  and  _131
REMARK   38  A    between atoms: _131  and  _132
REMARK   39  A    between atoms: _135  and  _137
REMARK   40  A    between atoms: _137  and  _138
REMARK   41  A    between atoms: _137  and  _140
REMARK   42  A    between atoms: _140  and  _141
REMARK   43  A    between atoms: _144  and  _146
REMARK   44  A    between atoms: _146  and  _147
REMARK   45  A    between atoms: _146  and  _149
REMARK   46  A    between atoms: _149  and  _150
REMARK   47  A    between atoms: _152  and  _154
REMARK   48  A    between atoms: _154  and  _155
REMARK   49  A    between atoms: _154  and  _157
REMARK   50  A    between atoms: _157  and  _158
REMARK   51  A    between atoms: _163  and  _165
REMARK   52  A    between atoms: _165  and  _166
REMARK   53  A    between atoms: _165  and  _168
REMARK   54  A    between atoms: _168  and  _169
REMARK   55  A    between atoms: _172  and  _174
REMARK   56  A    between atoms: _174  and  _175
REMARK   57  A    between atoms: _174  and  _177
REMARK   58  A    between atoms: _177  and  _178
REMARK   59  A    between atoms: _183  and  _185
REMARK   60  A    between atoms: _185  and  _186
REMARK   61  A    between atoms: _188  and  _190
REMARK   62  A    between atoms: _190  and  _191
REMARK   63  A    between atoms: _190  and  _193
REMARK   64  A    between atoms: _193  and  _194
REMARK   65  A    between atoms: _194  and  _195
REMARK   66  A    between atoms: _201  and  _202
REMARK   67  A    between atoms: _207  and  _209
REMARK   68  A    between atoms: _209  and  _210
REMARK   69  A    between atoms: _209  and  _212
REMARK   70  A    between atoms: _212  and  _213
REMARK   71  A    between atoms: _216  and  _218
REMARK   72  A    between atoms: _218  and  _219
REMARK   73  A    between atoms: _218  and  _221
REMARK   74  A    between atoms: _224  and  _226
REMARK   75  A    between atoms: _226  and  _227
REMARK   76  A    between atoms: _226  and  _229
REMARK   77  A    between atoms: _229  and  _230
REMARK   78  A    between atoms: _233  and  _235
REMARK   79  A    between atoms: _235  and  _236
REMARK   80  A    between atoms: _235  and  _238
REMARK   81  A    between atoms: _238  and  _239
REMARK   82  A    between atoms: _239  and  _240
REMARK   83  A    between atoms: _243  and  _245
REMARK   84  A    between atoms: _245  and  _246
REMARK   85  A    between atoms: _245  and  _248
REMARK   86  A    between atoms: _248  and  _249
REMARK   87  A    between atoms: _249  and  _251
REMARK   88  A    between atoms: _251  and  MN_300
REMARK   89  A    between atoms: _252  and  _254
REMARK   90  A    between atoms: _254  and  _255
REMARK   91  A    between atoms: _254  and  _257
REMARK   92  A    between atoms: _257  and  _258
REMARK   93  A    between atoms: _261  and  _263
REMARK   94  A    between atoms: _263  and  _264
REMARK   95  A    between atoms: _266  and  _268
REMARK   96  A    between atoms: _268  and  _269
REMARK   97  A    between atoms: _268  and  _271
REMARK   98  A    between atoms: _271  and  _272
REMARK   99  A    between atoms: _276  and  _277
REMARK  100  A    between atoms: _282  and  _284
REMARK  101  A    between atoms: _284  and  _285
REMARK  102  A    between atoms: _284  and  _287
REMARK  103  A    between atoms: _290  and  _292
REMARK  104  A    between atoms: _292  and  _293
REMARK  105  A    between atoms: _292  and  _295
REMARK  106  A    between atoms: _295  and  _296
REMARK  107  A    between atoms: _296  and  _297
REMARK                            x       y       z     vdW  Elec       q    Type
REMARK                         _______ _______ _______ _____ _____    ______ ____
ROOT
ATOM      1  CA  GLN A   2       2.328 -28.340 -12.039  0.00  0.00    +0.137 C 
ENDROOT
BRANCH   1   4
ATOM      2  C   GLY A   1       3.489 -29.588 -10.286  0.00  0.00    +0.240 C 
ATOM      3  O   GLY A   1       2.541 -29.491  -9.506  0.00  0.00    -0.274 OA
ATOM      4  N   GLN A   2       3.490 -29.057 -11.506  0.00  0.00    -0.298 N 
ATOM      5  H   GLN A   2       4.339 -29.153 -12.098  0.00  0.00    +0.150 HD
BRANCH   2   6
ATOM      6  CA  GLY A   1       4.750 -30.353  -9.918  0.00  0.00    +0.169 C 
BRANCH   6   7
ATOM      7  N   GLY A   1       5.594 -30.481 -11.099  0.00  0.00    -0.236 NA
ATOM      8  H   GLY A   1       6.379 -29.812 -11.233  0.00  0.00    +0.142 HD
ENDBRANCH   6   7
ENDBRANCH   2   6
ENDBRANCH   1   4
BRANCH   1   9
ATOM      9  C   GLN A   2       2.289 -28.348 -13.568  0.00  0.00    +0.227 C 
ATOM     10  O   GLN A   2       3.223 -28.853 -14.217  0.00  0.00    -0.286 OA
ENDBRANCH   1   9
BRANCH   1  11
ATOM     11  CB  GLN A   2       2.375 -26.929 -11.439  0.00  0.00    +0.037 C 
BRANCH  11  12
ATOM     12  CG  GLN A   2       3.642 -26.138 -11.627  0.00  0.00    +0.087 C 
BRANCH  12  13
ATOM     13  CD  GLN A   2       3.823 -25.491 -12.975  0.00  0.00    +0.219 C 
ATOM     14  OE1 GLN A   2       3.045 -24.679 -13.441  0.00  0.00    -0.275 OA
ATOM     15  NE2 GLN A   2       4.923 -25.834 -13.646  0.00  0.00    -0.329 N 
ATOM     16 HE21 GLN A   2       5.583 -26.528 -13.242  0.00  0.00    +0.145 HD
ATOM     17 HE22 GLN A   2       5.121 -25.407 -14.574  0.00  0.00    +0.145 HD
ENDBRANCH  12  13
ENDBRANCH  11  12
ENDBRANCH   1  11
TORSDOF 7
REMARK  Name = ../refined-set-2016/3mjl/3mjl_pocket.pdb
REMARK  107 active torsions:
REMARK  status: ('A' for Active; 'I' for Inactive)
REMARK    1  A    between atoms: _1  and  _3
REMARK    2  A    between atoms: _3  and  _4
REMARK    3  A    between atoms: _6  and  _8
REMARK    4  A    between atoms: _8  and  _9
REMARK    5  A    between atoms: _8  and  _11
REMARK    6  A    between atoms: _11  and  _12
REMARK    7  A    between atoms: _12  and  _13
REMARK    8  A    between atoms: _18  and  _20
REMARK    9  A    between atoms: _20  and  _21
REMARK   10  A    between atoms: _20  and  _23
REMARK   11  A    between atoms: _23  and  _24
REMARK   12  A    between atoms: _24  and  _25
REMARK   13  A    between atoms: _25  and  _26
REMARK   14  A    between atoms: _35  and  _37
REMARK   15  A    between atoms: _37  and  _38
REMARK   16  A    between atoms: _37  and  _40
REMARK   17  A    between atoms: _40  and  _41
REMARK   18  A    between atoms: _42  and  MN_301
REMARK   19  A    between atoms: _46  and  _48
REMARK   20  A    between atoms: _48  and  _49
REMARK   21  A    between atoms: _48  and  _51
REMARK   22  A    between atoms: _51  and  _52
REMARK   23  A    between atoms: _62  and  _64
REMARK   24  A    between atoms: _90  and  _93
REMARK   25  A    between atoms: _93  and  _94
REMARK   26  A    between atoms: _99  and  _100
REMARK   27  A    between atoms: _106  and  _108
REMARK   28  A    between atoms: _108  and  _109
REMARK   29  A    between atoms: _108  and  _111
REMARK   30  A    between atoms: _111  and  _112
REMARK   31  A    between atoms: _115  and  _117
REMARK   32  A    between atoms: _117  and  _118
REMARK   33  A    between atoms: _117  and  _120
REMARK   34  A    between atoms: _120  and  _121
REMARK   35  A    between atoms: _126  and  _128
REMARK   36  A    between atoms: _128  and  _129
REMARK   37  A    between atoms: _128  and  _131
REMARK   38  A    between atoms: _131  and  _132
REMARK   39  A    between atoms: _135  and  _137
REMARK   40  A    between atoms: _137  and  _138
REMARK   41  A    between atoms: _137  and  _140
REMARK   42  A    between atoms: _140  and  _141
REMARK   43  A    between atoms: _144  and  _146
REMARK   44  A    between atoms: _146  and  _147
REMARK   45  A    between atoms: _146  and  _149
REMARK   46  A    between atoms: _149  and  _150
REMARK   47  A    between atoms: _152  and  _154
REMARK   48  A    between atoms: _154  and  _155
REMARK   49  A    between atoms: _154  and  _157
REMARK   50  A    between atoms: _157  and  _158
REMARK   51  A    between atoms: _163  and  _165
REMARK   52  A    between atoms: _165  and  _166
REMARK   53  A    between atoms: _165  and  _168
REMARK   54  A    between atoms: _168  and  _169
REMARK   55  A    between atoms: _172  and  _174
REMARK   56  A    between atoms: _174  and  _175
REMARK   57  A    between atoms: _174  and  _177
REMARK   58  A    between atoms: _177  and  _178
REMARK   59  A    between atoms: _183  and  _185
REMARK   60  A    between atoms: _185  and  _186
REMARK   61  A    between atoms: _188  and  _190
REMARK   62  A    between atoms: _190  and  _191
REMARK   63  A    between atoms: _190  and  _193
REMARK   64  A    between atoms: _193  and  _194
REMARK   65  A    between atoms: _194  and  _195
REMARK   66  A    between atoms: _201  and  _202
REMARK   67  A    between atoms: _207  and  _209
REMARK   68  A    between atoms: _209  and  _210
REMARK   69  A    between atoms: _209  and  _212
REMARK   70  A    between atoms: _212  and  _213
REMARK   71  A    between atoms: _216  and  _218
REMARK   72  A    between atoms: _218  and  _219
REMARK   73  A    between atoms: _218  and  _221
REMARK   74  A    between atoms: _224  and  _226
REMARK   75  A    between atoms: _226  and  _227
REMARK   76  A    between atoms: _226  and  _229
REMARK   77  A    between atoms: _229  and  _230
REMARK   78  A    between atoms: _233  and  _235
REMARK   79  A    between atoms: _235  and  _236
REMARK   80  A    between atoms: _235  and  _238
REMARK   81  A    between atoms: _238  and  _239
REMARK   82  A    between atoms: _239  and  _240
REMARK   83  A    between atoms: _243  and  _245
REMARK   84  A    between atoms: _245  and  _246
REMARK   85  A    between atoms: _245  and  _248
REMARK   86  A    between atoms: _248  and  _249
REMARK   87  A    between atoms: _249  and  _251
REMARK   88  A    between atoms: _251  and  MN_300
REMARK   89  A    between atoms: _252  and  _254
REMARK   90  A    between atoms: _254  and  _255
REMARK   91  A    between atoms: _254  and  _257
REMARK   92  A    between atoms: _257  and  _258
REMARK   93  A    between atoms: _261  and  _263
REMARK   94  A    between atoms: _263  and  _264
REMARK   95  A    between atoms: _266  and  _268
REMARK   96  A    between atoms: _268  and  _269
REMARK   97  A    between atoms: _268  and  _271
REMARK   98  A    between atoms: _271  and  _272
REMARK   99  A    between atoms: _276  and  _277
REMARK  100  A    between atoms: _282  and  _284
REMARK  101  A    between atoms: _284  and  _285
REMARK  102  A    between atoms: _284  and  _287
REMARK  103  A    between atoms: _290  and  _292
REMARK  104  A    between atoms: _292  and  _293
REMARK  105  A    between atoms: _292  and  _295
REMARK  106  A    between atoms: _295  and  _296
REMARK  107  A    between atoms: _296  and  _297
REMARK                            x       y       z     vdW  Elec       q    Type
REMARK                         _______ _______ _______ _____ _____    ______ ____
ROOT
ATOM      1  NE  ARG A   1      -0.067 -22.847 -14.740  0.00  0.00    -0.265 N 
ATOM      2  HE  ARG A   1       0.605 -22.575 -13.994  0.00  0.00    +0.259 HD
ATOM      3  CZ  ARG A   1      -1.089 -23.587 -14.348  0.00  0.00    +0.342 C 
ATOM      4  NH2 ARG A   1      -1.234 -23.946 -13.080  0.00  0.00    -0.292 N 
ATOM      5 HH21 ARG A   1      -0.535 -23.645 -12.371  0.00  0.00    +0.255 HD
ATOM      6 HH22 ARG A   1      -2.047 -24.529 -12.794  0.00  0.00    +0.255 HD
ATOM      7  NH1 ARG A   1      -2.004 -24.000 -15.208  0.00  0.00    -0.292 N 
ATOM      8 HH11 ARG A   1      -2.801 -24.582 -14.880  0.00  0.00    +0.255 HD
ATOM      9 HH12 ARG A   1      -1.927 -23.743 -16.213  0.00  0.00    +0.255 HD
ENDROOT
BRANCH   1  10
ATOM     10  CD  ARG A   1       0.244 -22.361 -16.078  0.00  0.00    +0.174 C 
BRANCH  10  11
ATOM     11  CG  ARG A   1       0.925 -23.376 -16.968  0.00  0.00    +0.045 C 
BRANCH  11  12
ATOM     12  CB  ARG A   1       2.432 -23.463 -16.793  0.00  0.00    +0.029 C 
BRANCH  12  13
ATOM     13  CA  ARG A   1       2.917 -24.878 -17.163  0.00  0.00    +0.133 C 
BRANCH  13  14
ATOM     14  N   ARG A   1       2.285 -25.799 -16.207  0.00  0.00    -0.239 NA
ATOM     15  H   ARG A   1       2.044 -25.461 -15.253  0.00  0.00    +0.142 HD
ENDBRANCH  13  14
BRANCH  13  16
ATOM     16  C   ARG A   1       4.422 -25.015 -17.204  0.00  0.00    +0.224 C 
ATOM     17  O   ARG A   1       5.112 -25.046 -16.186  0.00  0.00    -0.287 OA
ENDBRANCH  13  16
ENDBRANCH  12  13
ENDBRANCH  11  12
ENDBRANCH  10  11
ENDBRANCH   1  10
TORSDOF 6
REMARK  Name = ../refined-set-2016/3mjl/3mjl_pocket.pdb
REMARK  107 active torsions:
REMARK  status: ('A' for Active; 'I' for Inactive)
REMARK    1  A    between atoms: _1  and  _3
REMARK    2  A    between atoms: _3  and  _4
REMARK    3  A    between atoms: _6  and  _8
REMARK    4  A    between atoms: _8  and  _9
REMARK    5  A    between atoms: _8  and  _11
REMARK    6  A    between atoms: _11  and  _12
REMARK    7  A    between atoms: _12  and  _13
REMARK    8  A    between atoms: _18  and  _20
REMARK    9  A    between atoms: _20  and  _21
REMARK   10  A    between atoms: _20  and  _23
REMARK   11  A    between atoms: _23  and  _24
REMARK   12  A    between atoms: _24  and  _25
REMARK   13  A    between atoms: _25  and  _26
REMARK   14  A    between atoms: _35  and  _37
REMARK   15  A    between atoms: _37  and  _38
REMARK   16  A    between atoms: _37  and  _40
REMARK   17  A    between atoms: _40  and  _41
REMARK   18  A    between atoms: _42  and  MN_301
REMARK   19  A    between atoms: _46  and  _48
REMARK   20  A    between atoms: _48  and  _49
REMARK   21  A    between atoms: _48  and  _51
REMARK   22  A    between atoms: _51  and  _52
REMARK   23  A    between atoms: _62  and  _64
REMARK   24  A    between atoms: _90  and  _93
REMARK   25  A    between atoms: _93  and  _94
REMARK   26  A    between atoms: _99  and  _100
REMARK   27  A    between atoms: _106  and  _108
REMARK   28  A    between atoms: _108  and  _109
REMARK   29  A    between atoms: _108  and  _111
REMARK   30  A    between atoms: _111  and  _112
REMARK   31  A    between atoms: _115  and  _117
REMARK   32  A    between atoms: _117  and  _118
REMARK   33  A    between atoms: _117  and  _120
REMARK   34  A    between atoms: _120  and  _121
REMARK   35  A    between atoms: _126  and  _128
REMARK   36  A    between atoms: _128  and  _129
REMARK   37  A    between atoms: _128  and  _131
REMARK   38  A    between atoms: _131  and  _132
REMARK   39  A    between atoms: _135  and  _137
REMARK   40  A    between atoms: _137  and  _138
REMARK   41  A    between atoms: _137  and  _140
REMARK   42  A    between atoms: _140  and  _141
REMARK   43  A    between atoms: _144  and  _146
REMARK   44  A    between atoms: _146  and  _147
REMARK   45  A    between atoms: _146  and  _149
REMARK   46  A    between atoms: _149  and  _150
REMARK   47  A    between atoms: _152  and  _154
REMARK   48  A    between atoms: _154  and  _155
REMARK   49  A    between atoms: _154  and  _157
REMARK   50  A    between atoms: _157  and  _158
REMARK   51  A    between atoms: _163  and  _165
REMARK   52  A    between atoms: _165  and  _166
REMARK   53  A    between atoms: _165  and  _168
REMARK   54  A    between atoms: _168  and  _169
REMARK   55  A    between atoms: _172  and  _174
REMARK   56  A    between atoms: _174  and  _175
REMARK   57  A    between atoms: _174  and  _177
REMARK   58  A    between atoms: _177  and  _178
REMARK   59  A    between atoms: _183  and  _185
REMARK   60  A    between atoms: _185  and  _186
REMARK   61  A    between atoms: _188  and  _190
REMARK   62  A    between atoms: _190  and  _191
REMARK   63  A    between atoms: _190  and  _193
REMARK   64  A    between atoms: _193  and  _194
REMARK   65  A    between atoms: _194  and  _195
REMARK   66  A    between atoms: _201  and  _202
REMARK   67  A    between atoms: _207  and  _209
REMARK   68  A    between atoms: _209  and  _210
REMARK   69  A    between atoms: _209  and  _212
REMARK   70  A    between atoms: _212  and  _213
REMARK   71  A    between atoms: _216  and  _218
REMARK   72  A    between atoms: _218  and  _219
REMARK   73  A    between atoms: _218  and  _221
REMARK   74  A    between atoms: _224  and  _226
REMARK   75  A    between atoms: _226  and  _227
REMARK   76  A    between atoms: _226  and  _229
REMARK   77  A    between atoms: _229  and  _230
REMARK   78  A    between atoms: _233  and  _235
REMARK   79  A    between atoms: _235  and  _236
REMARK   80  A    between atoms: _235  and  _238
REMARK   81  A    between atoms: _238  and  _239
REMARK   82  A    between atoms: _239  and  _240
REMARK   83  A    between atoms: _243  and  _245
REMARK   84  A    between atoms: _245  and  _246
REMARK   85  A    between atoms: _245  and  _248
REMARK   86  A    between atoms: _248  and  _249
REMARK   87  A    between atoms: _249  and  _251
REMARK   88  A    between atoms: _251  and  MN_300
REMARK   89  A    between atoms: _252  and  _254
REMARK   90  A    between atoms: _254  and  _255
REMARK   91  A    between atoms: _254  and  _257
REMARK   92  A    between atoms: _257  and  _258
REMARK   93  A    between atoms: _261  and  _263
REMARK   94  A    between atoms: _263  and  _264
REMARK   95  A    between atoms: _266  and  _268
REMARK   96  A    between atoms: _268  and  _269
REMARK   97  A    between atoms: _268  and  _271
REMARK   98  A    between atoms: _271  and  _272
REMARK   99  A    between atoms: _276  and  _277
REMARK  100  A    between atoms: _282  and  _284
REMARK  101  A    between atoms: _284  and  _285
REMARK  102  A    between atoms: _284  and  _287
REMARK  103  A    between atoms: _290  and  _292
REMARK  104  A    between atoms: _292  and  _293
REMARK  105  A    between atoms: _292  and  _295
REMARK  106  A    between atoms: _295  and  _296
REMARK  107  A    between atoms: _296  and  _297
REMARK                            x       y       z     vdW  Elec       q    Type
REMARK                         _______ _______ _______ _____ _____    ______ ____
ROOT
ATOM      1 MN   UNK A   5       3.502 -22.415  -3.400  0.00  0.00    +0.000 Mn
ATOM      2  O   UNK A   5       3.161 -21.167  -1.763  0.00  0.00    +0.000 OA
ATOM      3  C   UNK A   5       2.506 -20.114  -1.583  0.00  0.00    +0.000 C 
ATOM      4  C   UNK A   5       2.753 -19.322  -0.320  0.00  0.00    +0.000 C 
ATOM      5  C   UNK A   5       2.711 -17.792  -0.420  0.00  0.00    +0.000 C 
ATOM      6  C   UNK A   1       1.270 -17.316  -0.370  0.00  0.00    +0.000 C 
ATOM      7  O   UNK A   1       0.652 -17.031   0.660  0.00  0.00    +0.000 OA
ATOM      8  N   ALA A   2       0.659 -17.224  -1.548  0.00  0.00    +0.000 N 
ATOM      9  CA  ALA A   2      -0.767 -16.980  -1.637  0.00  0.00    +0.000 C 
ATOM     10  C   ALA A   2      -1.572 -18.227  -1.277  0.00  0.00    +0.000 C 
ATOM     11  O   ALA A   2      -2.750 -18.062  -0.940  0.00  0.00    +0.000 OA
ATOM     12  N   UNK A   3      -0.960 -19.386  -1.385  0.00  0.00    +0.000 N 
ATOM     13  C   UNK A   3      -1.513 -20.704  -1.106  0.00  0.00    +0.000 C 
ATOM     14  C   UNK A   3      -0.847 -21.424   0.065  0.00  0.00    +0.000 C 
ATOM     15  N   THR A   4      -1.541 -22.413   0.645  0.00  0.00    +0.000 N 
ATOM     16  CA  THR A   4      -1.019 -23.168   1.784  0.00  0.00    +0.000 C 
ATOM     17  C   THR A   4      -0.239 -24.404   1.358  0.00  0.00    +0.000 C 
ATOM     18  O   THR A   4       0.571 -24.920   2.141  0.00  0.00    +0.000 OA
ATOM     19  N   UNK A   5      -0.491 -24.817   0.117  0.00  0.00    +0.000 N 
ATOM     20  H   UNK A   5      -1.207 -24.306  -0.438  0.00  0.00    +0.000 HD
ATOM     21  C   UNK A   5       0.187 -25.949  -0.501  0.00  0.00    +0.000 C 
ATOM     22  C   UNK A   5       1.641 -25.622  -0.865  0.00  0.00    +0.000 C 
ATOM     23  C   UNK A   5       1.700 -24.540  -1.931  0.00  0.00    +0.000 C 
ATOM     24  O   UNK A   5       0.606 -24.228  -2.457  0.00  0.00    +0.000 OA
ATOM     25  H   THR A   4      -2.482 -22.652   0.273  0.00  0.00    +0.000 HD
ATOM     26  O   UNK A   3       0.276 -21.106   0.454  0.00  0.00    +0.000 OA
ATOM     27  C   UNK A   3      -1.410 -21.567  -2.381  0.00  0.00    +0.000 C 
ATOM     28  C   UNK A   3      -1.794 -20.743  -3.590  0.00  0.00    +0.000 A 
ATOM     29  C   UNK A   3      -3.007 -20.564  -4.165  0.00  0.00    +0.000 A 
ATOM     30  N   UNK A   3      -2.827 -19.723  -5.226  0.00  0.00    +0.000 NA
ATOM     31  C   UNK A   3      -1.547 -19.386  -5.305  0.00  0.00    +0.000 A 
ATOM     32  N   UNK A   3      -0.896 -19.999  -4.315  0.00  0.00    +0.000 N 
ATOM     33 MN   UNK A   3       1.349 -20.056  -4.457  0.00  0.00    +0.000 Mn
ATOM     34  O   UNK A   3       1.781 -17.905  -4.589  0.00  0.00    +0.000 OA
ATOM     35  C   UNK A   3       1.985 -17.905  -5.836  0.00  0.00    +0.000 C 
ATOM     36  O   UNK A   3       1.491 -18.859  -6.501  0.00  0.00    +0.000 OA
ATOM     37  H   UNK A   3       0.029 -19.358  -1.705  0.00  0.00    +0.000 HD
ATOM     38  CB  ALA A   2      -1.141 -16.521  -3.052  0.00  0.00    +0.000 C 
ATOM     39  H   ALA A   2       1.215 -17.329  -2.421  0.00  0.00    +0.000 HD
ATOM     40  O   UNK A   3       1.649 -19.721  -2.405  0.00  0.00    +0.000 OA
ATOM     41  O   UNK A   5       2.810 -24.034  -2.176  0.00  0.00    +0.000 OA
ATOM     42  O   UNK A   3       1.633 -22.261  -4.323  0.00  0.00    +0.000 OA
ATOM     43  O   UNK A   5       3.198 -23.564  -5.438  0.00  0.00    +0.000 OA
ENDROOT
BRANCH   1  48
ATOM     44  C   UNK A   5       6.354 -23.865  -3.431  0.00  0.00    +0.000 A 
ATOM     45  C   UNK A   5       7.458 -23.986  -2.668  0.00  0.00    +0.000 A 
ATOM     46  N   UNK A   5       7.361 -23.060  -1.656  0.00  0.00    +0.000 NA
ATOM     47  C   UNK A   5       6.230 -22.401  -1.812  0.00  0.00    +0.000 A 
ATOM     48  N   UNK A   5       5.600 -22.866  -2.879  0.00  0.00    +0.000 N 
BRANCH  44  49
ATOM     49  C   UNK A   5       5.910 -24.590  -4.670  0.00  0.00    +0.000 C 
BRANCH  49  50
ATOM     50  C   UNK A   5       7.066 -25.376  -5.308  0.00  0.00    +0.000 C 
BRANCH  50  51
ATOM     51  C   UNK A   5       6.972 -26.814  -4.822  0.00  0.00    +0.000 C 
ATOM     52  O   UNK A   1       7.131 -27.068  -3.610  0.00  0.00    +0.000 OA
ENDBRANCH  50  51
BRANCH  50  53
ATOM     53  N   UNK A   5       7.023 -25.203  -6.751  0.00  0.00    +0.000 NA
ATOM     54  H   UNK A   1       6.170 -24.785  -7.175  0.00  0.00    +0.000 HD
ENDBRANCH  50  53
ENDBRANCH  49  50
ENDBRANCH  44  49
ENDBRANCH   1  48
BRANCH  21  55
ATOM     55  C   UNK A   5       0.169 -27.157   0.421  0.00  0.00    +0.000 C 
ATOM     56  N   ILE A   6      -0.966 -27.337   1.084  0.00  0.00    +0.000 N 
ATOM     57  H   ILE A   6      -1.784 -26.719   0.908  0.00  0.00    +0.000 HD
ATOM     58  O   UNK A   5       1.119 -27.921   0.554  0.00  0.00    +0.000 OA
BRANCH  56  59
ATOM     59  CA  ILE A   6      -1.048 -28.416   2.064  0.00  0.00    +0.000 C 
BRANCH  59  60
ATOM     60  C   ILE A   6      -2.147 -29.384   1.694  0.00  0.00    +0.000 C 
ATOM     61  O   ILE A   6      -2.696 -30.144   2.481  0.00  0.00    +0.000 OA
ATOM     62  N   ASN A   7      -2.528 -29.362   0.409  0.00  0.00    +0.000 N 
ATOM     63  H   ASN A   7      -2.143 -28.675  -0.270  0.00  0.00    +0.000 HD
BRANCH  62  64
ATOM     64  CA  ASN A   7      -3.522 -30.367   0.021  0.00  0.00    +0.000 C 
BRANCH  64  65
ATOM     65  C   ASN A   7      -2.963 -31.752   0.207  0.00  0.00    +0.000 C 
ATOM     66  O   ASN A   7      -1.756 -31.957   0.051  0.00  0.00    +0.000 OA
ENDBRANCH  64  65
BRANCH  64  67
ATOM     67  CB  ASN A   7      -3.884 -30.178  -1.468  0.00  0.00    +0.000 C 
BRANCH  67  68
ATOM     68  CG  ASN A   7      -5.213 -29.459  -1.601  0.00  0.00    +0.000 C 
ATOM     69  OD1 ASN A   7      -6.223 -29.969  -1.145  0.00  0.00    +0.000 OA
ATOM     70  ND2 ASN A   7      -5.205 -28.297  -2.241  0.00  0.00    +0.000 N 
ATOM     71 HD21 ASN A   7      -6.092 -27.771  -2.376  0.00  0.00    +0.000 HD
ATOM     72 HD22 ASN A   7      -4.312 -27.912  -2.608  0.00  0.00    +0.000 HD
ENDBRANCH  67  68
ENDBRANCH  64  67
ENDBRANCH  62  64
ENDBRANCH  59  60
BRANCH  59  73
ATOM     73  CB  ILE A   6      -1.343 -27.841   3.463  0.00  0.00    +0.000 C 
ATOM     74  CG2 ILE A   6      -2.751 -27.238   3.463  0.00  0.00    +0.000 C 
BRANCH  73  75
ATOM     75  CG1 ILE A   6      -1.142 -28.854   4.584  0.00  0.00    +0.000 C 
ATOM     76  CD1 ILE A   6      -1.416 -28.176   5.936  0.00  0.00    +0.000 C 
ENDBRANCH  73  75
ENDBRANCH  59  73
ENDBRANCH  56  59
ENDBRANCH  21  55
BRANCH  16  77
ATOM     77  CB  THR A   4      -2.137 -23.586   2.749  0.00  0.00    +0.000 C 
ATOM     78  CG2 THR A   4      -2.446 -22.416   3.680  0.00  0.00    +0.000 C 
BRANCH  77  79
ATOM     79  OG1 THR A   4      -3.348 -23.866   2.049  0.00  0.00    +0.000 OA
ATOM     80  HG1 THR A   4      -3.194 -24.603   1.407  0.00  0.00    +0.000 HD
ENDBRANCH  77  79
ENDBRANCH  16  77
BRANCH   5  81
ATOM     81  N   UNK A   5       3.497 -17.226   0.676  0.00  0.00    +0.000 NA
ATOM     82  H   UNK A   1       3.012 -16.649   1.393  0.00  0.00    +0.000 HD
ENDBRANCH   5  81
BRANCH  33  83
ATOM     83  O   UNK A   3       3.568 -20.377  -4.459  0.00  0.00    +0.000 OA
BRANCH  83  84
ATOM     84  C   UNK A   3       4.558 -19.608  -4.594  0.00  0.00    +0.000 C 
ATOM     85  O   UNK A   3       4.734 -18.936  -5.632  0.00  0.00    +0.000 OA
BRANCH  84  86
ATOM     86  C   UNK A   3       5.520 -19.515  -3.432  0.00  0.00    +0.000 C 
BRANCH  86  87
ATOM     87  C   UNK A   3       6.735 -18.628  -3.536  0.00  0.00    +0.000 C 
BRANCH  87  88
ATOM     88  C   UNK A   3       6.417 -17.219  -4.016  0.00  0.00    +0.000 C 
ATOM     89  O   UNK A   1       5.724 -16.483  -3.313  0.00  0.00    +0.000 OA
ENDBRANCH  87  88
BRANCH  87  90
ATOM     90  N   UNK A   3       7.425 -18.478  -2.249  0.00  0.00    +0.000 NA
ATOM     91  H   UNK A   1       6.845 -18.343  -1.396  0.00  0.00    +0.000 HD
ENDBRANCH  87  90
ENDBRANCH  86  87
ENDBRANCH  84  86
ENDBRANCH  83  84
ENDBRANCH  33  83
BRANCH  35  92
ATOM     92  C   UNK A   3       2.177 -16.631  -6.605  0.00  0.00    +0.000 C 
BRANCH  92  93
ATOM     93  C   UNK A   3       3.062 -15.524  -6.055  0.00  0.00    +0.000 C 
BRANCH  93  94
ATOM     94  N   UNK A   3       4.462 -15.911  -5.932  0.00  0.00    +0.000 NA
ATOM     95  H   UNK A   1       4.710 -16.921  -5.911  0.00  0.00    +0.000 HD
ENDBRANCH  93  94
BRANCH  93  96
ATOM     96  C   UNK A   3       2.534 -15.092  -4.684  0.00  0.00    +0.000 C 
ATOM     97  O   UNK A   1       1.384 -14.717  -4.552  0.00  0.00    +0.000 OA
ENDBRANCH  93  96
ENDBRANCH  92  93
ENDBRANCH  35  92
TORSDOF 27
REMARK  Name = ../refined-set-2016/3mjl/3mjl_pocket.pdb
REMARK  107 active torsions:
REMARK  status: ('A' for Active; 'I' for Inactive)
REMARK    1  A    between atoms: _1  and  _3
REMARK    2  A    between atoms: _3  and  _4
REMARK    3  A    between atoms: _6  and  _8
REMARK    4  A    between atoms: _8  and  _9
REMARK    5  A    between atoms: _8  and  _11
REMARK    6  A    between atoms: _11  and  _12
REMARK    7  A    between atoms: _12  and  _13
REMARK    8  A    between atoms: _18  and  _20
REMARK    9  A    between atoms: _20  and  _21
REMARK   10  A    between atoms: _20  and  _23
REMARK   11  A    between atoms: _23  and  _24
REMARK   12  A    between atoms: _24  and  _25
REMARK   13  A    between atoms: _25  and  _26
REMARK   14  A    between atoms: _35  and  _37
REMARK   15  A    between atoms: _37  and  _38
REMARK   16  A    between atoms: _37  and  _40
REMARK   17  A    between atoms: _40  and  _41
REMARK   18  A    between atoms: _42  and  MN_301
REMARK   19  A    between atoms: _46  and  _48
REMARK   20  A    between atoms: _48  and  _49
REMARK   21  A    between atoms: _48  and  _51
REMARK   22  A    between atoms: _51  and  _52
REMARK   23  A    between atoms: _62  and  _64
REMARK   24  A    between atoms: _90  and  _93
REMARK   25  A    between atoms: _93  and  _94
REMARK   26  A    between atoms: _99  and  _100
REMARK   27  A    between atoms: _106  and  _108
REMARK   28  A    between atoms: _108  and  _109
REMARK   29  A    between atoms: _108  and  _111
REMARK   30  A    between atoms: _111  and  _112
REMARK   31  A    between atoms: _115  and  _117
REMARK   32  A    between atoms: _117  and  _118
REMARK   33  A    between atoms: _117  and  _120
REMARK   34  A    between atoms: _120  and  _121
REMARK   35  A    between atoms: _126  and  _128
REMARK   36  A    between atoms: _128  and  _129
REMARK   37  A    between atoms: _128  and  _131
REMARK   38  A    between atoms: _131  and  _132
REMARK   39  A    between atoms: _135  and  _137
REMARK   40  A    between atoms: _137  and  _138
REMARK   41  A    between atoms: _137  and  _140
REMARK   42  A    between atoms: _140  and  _141
REMARK   43  A    between atoms: _144  and  _146
REMARK   44  A    between atoms: _146  and  _147
REMARK   45  A    between atoms: _146  and  _149
REMARK   46  A    between atoms: _149  and  _150
REMARK   47  A    between atoms: _152  and  _154
REMARK   48  A    between atoms: _154  and  _155
REMARK   49  A    between atoms: _154  and  _157
REMARK   50  A    between atoms: _157  and  _158
REMARK   51  A    between atoms: _163  and  _165
REMARK   52  A    between atoms: _165  and  _166
REMARK   53  A    between atoms: _165  and  _168
REMARK   54  A    between atoms: _168  and  _169
REMARK   55  A    between atoms: _172  and  _174
REMARK   56  A    between atoms: _174  and  _175
REMARK   57  A    between atoms: _174  and  _177
REMARK   58  A    between atoms: _177  and  _178
REMARK   59  A    between atoms: _183  and  _185
REMARK   60  A    between atoms: _185  and  _186
REMARK   61  A    between atoms: _188  and  _190
REMARK   62  A    between atoms: _190  and  _191
REMARK   63  A    between atoms: _190  and  _193
REMARK   64  A    between atoms: _193  and  _194
REMARK   65  A    between atoms: _194  and  _195
REMARK   66  A    between atoms: _201  and  _202
REMARK   67  A    between atoms: _207  and  _209
REMARK   68  A    between atoms: _209  and  _210
REMARK   69  A    between atoms: _209  and  _212
REMARK   70  A    between atoms: _212  and  _213
REMARK   71  A    between atoms: _216  and  _218
REMARK   72  A    between atoms: _218  and  _219
REMARK   73  A    between atoms: _218  and  _221
REMARK   74  A    between atoms: _224  and  _226
REMARK   75  A    between atoms: _226  and  _227
REMARK   76  A    between atoms: _226  and  _229
REMARK   77  A    between atoms: _229  and  _230
REMARK   78  A    between atoms: _233  and  _235
REMARK   79  A    between atoms: _235  and  _236
REMARK   80  A    between atoms: _235  and  _238
REMARK   81  A    between atoms: _238  and  _239
REMARK   82  A    between atoms: _239  and  _240
REMARK   83  A    between atoms: _243  and  _245
REMARK   84  A    between atoms: _245  and  _246
REMARK   85  A    between atoms: _245  and  _248
REMARK   86  A    between atoms: _248  and  _249
REMARK   87  A    between atoms: _249  and  _251
REMARK   88  A    between atoms: _251  and  MN_300
REMARK   89  A    between atoms: _252  and  _254
REMARK   90  A    between atoms: _254  and  _255
REMARK   91  A    between atoms: _254  and  _257
REMARK   92  A    between atoms: _257  and  _258
REMARK   93  A    between atoms: _261  and  _263
REMARK   94  A    between atoms: _263  and  _264
REMARK   95  A    between atoms: _266  and  _268
REMARK   96  A    between atoms: _268  and  _269
REMARK   97  A    between atoms: _268  and  _271
REMARK   98  A    between atoms: _271  and  _272
REMARK   99  A    between atoms: _276  and  _277
REMARK  100  A    between atoms: _282  and  _284
REMARK  101  A    between atoms: _284  and  _285
REMARK  102  A    between atoms: _284  and  _287
REMARK  103  A    between atoms: _290  and  _292
REMARK  104  A    between atoms: _292  and  _293
REMARK  105  A    between atoms: _292  and  _295
REMARK  106  A    between atoms: _295  and  _296
REMARK  107  A    between atoms: _296  and  _297
REMARK                            x       y       z     vdW  Elec       q    Type
REMARK                         _______ _______ _______ _____ _____    ______ ____
ROOT
ATOM      1  CG  TRP A   1       4.873 -22.099   2.917  0.00  0.00    -0.002 A 
ATOM      2  CD2 TRP A   1       5.400 -23.325   2.393  0.00  0.00    +0.013 A 
ATOM      3  CE3 TRP A   1       6.358 -24.244   2.837  0.00  0.00    +0.001 A 
ATOM      4  CZ3 TRP A   1       6.634 -25.360   2.049  0.00  0.00    +0.000 A 
ATOM      5  CH2 TRP A   1       5.974 -25.579   0.831  0.00  0.00    +0.001 A 
ATOM      6  CZ2 TRP A   1       5.032 -24.690   0.385  0.00  0.00    +0.017 A 
ATOM      7  CE2 TRP A   1       4.749 -23.566   1.166  0.00  0.00    +0.056 A 
ATOM      8  NE1 TRP A   1       3.875 -22.538   0.968  0.00  0.00    -0.352 N 
ATOM      9  HE1 TRP A   1       3.247 -22.437   0.145  0.00  0.00    +0.166 HD
ATOM     10  CD1 TRP A   1       3.949 -21.660   2.015  0.00  0.00    +0.068 A 
ENDROOT
BRANCH   1  11
ATOM     11  CB  TRP A   1       5.265 -21.450   4.202  0.00  0.00    +0.053 C 
BRANCH  11  12
ATOM     12  CA  TRP A   1       6.168 -20.230   4.147  0.00  0.00    +0.137 C 
BRANCH  12  13
ATOM     13  N   TRP A   1       6.656 -19.929   5.508  0.00  0.00    -0.239 NA
ATOM     14  H   TRP A   1       5.970 -19.743   6.267  0.00  0.00    +0.142 HD
ENDBRANCH  12  13
BRANCH  12  15
ATOM     15  C   TRP A   1       5.440 -19.019   3.582  0.00  0.00    +0.224 C 
ATOM     16  O   TRP A   1       4.331 -18.765   4.028  0.00  0.00    -0.287 OA
ENDBRANCH  12  15
ENDBRANCH  11  12
ENDBRANCH   1  11
TORSDOF 4
REMARK  Name = ../refined-set-2016/3mjl/3mjl_pocket.pdb
REMARK  107 active torsions:
REMARK  status: ('A' for Active; 'I' for Inactive)
REMARK    1  A    between atoms: _1  and  _3
REMARK    2  A    between atoms: _3  and  _4
REMARK    3  A    between atoms: _6  and  _8
REMARK    4  A    between atoms: _8  and  _9
REMARK    5  A    between atoms: _8  and  _11
REMARK    6  A    between atoms: _11  and  _12
REMARK    7  A    between atoms: _12  and  _13
REMARK    8  A    between atoms: _18  and  _20
REMARK    9  A    between atoms: _20  and  _21
REMARK   10  A    between atoms: _20  and  _23
REMARK   11  A    between atoms: _23  and  _24
REMARK   12  A    between atoms: _24  and  _25
REMARK   13  A    between atoms: _25  and  _26
REMARK   14  A    between atoms: _35  and  _37
REMARK   15  A    between atoms: _37  and  _38
REMARK   16  A    between atoms: _37  and  _40
REMARK   17  A    between atoms: _40  and  _41
REMARK   18  A    between atoms: _42  and  MN_301
REMARK   19  A    between atoms: _46  and  _48
REMARK   20  A    between atoms: _48  and  _49
REMARK   21  A    between atoms: _48  and  _51
REMARK   22  A    between atoms: _51  and  _52
REMARK   23  A    between atoms: _62  and  _64
REMARK   24  A    between atoms: _90  and  _93
REMARK   25  A    between atoms: _93  and  _94
REMARK   26  A    between atoms: _99  and  _100
REMARK   27  A    between atoms: _106  and  _108
REMARK   28  A    between atoms: _108  and  _109
REMARK   29  A    between atoms: _108  and  _111
REMARK   30  A    between atoms: _111  and  _112
REMARK   31  A    between atoms: _115  and  _117
REMARK   32  A    between atoms: _117  and  _118
REMARK   33  A    between atoms: _117  and  _120
REMARK   34  A    between atoms: _120  and  _121
REMARK   35  A    between atoms: _126  and  _128
REMARK   36  A    between atoms: _128  and  _129
REMARK   37  A    between atoms: _128  and  _131
REMARK   38  A    between atoms: _131  and  _132
REMARK   39  A    between atoms: _135  and  _137
REMARK   40  A    between atoms: _137  and  _138
REMARK   41  A    between atoms: _137  and  _140
REMARK   42  A    between atoms: _140  and  _141
REMARK   43  A    between atoms: _144  and  _146
REMARK   44  A    between atoms: _146  and  _147
REMARK   45  A    between atoms: _146  and  _149
REMARK   46  A    between atoms: _149  and  _150
REMARK   47  A    between atoms: _152  and  _154
REMARK   48  A    between atoms: _154  and  _155
REMARK   49  A    between atoms: _154  and  _157
REMARK   50  A    between atoms: _157  and  _158
REMARK   51  A    between atoms: _163  and  _165
REMARK   52  A    between atoms: _165  and  _166
REMARK   53  A    between atoms: _165  and  _168
REMARK   54  A    between atoms: _168  and  _169
REMARK   55  A    between atoms: _172  and  _174
REMARK   56  A    between atoms: _174  and  _175
REMARK   57  A    between atoms: _174  and  _177
REMARK   58  A    between atoms: _177  and  _178
REMARK   59  A    between atoms: _183  and  _185
REMARK   60  A    between atoms: _185  and  _186
REMARK   61  A    between atoms: _188  and  _190
REMARK   62  A    between atoms: _190  and  _191
REMARK   63  A    between atoms: _190  and  _193
REMARK   64  A    between atoms: _193  and  _194
REMARK   65  A    between atoms: _194  and  _195
REMARK   66  A    between atoms: _201  and  _202
REMARK   67  A    between atoms: _207  and  _209
REMARK   68  A    between atoms: _209  and  _210
REMARK   69  A    between atoms: _209  and  _212
REMARK   70  A    between atoms: _212  and  _213
REMARK   71  A    between atoms: _216  and  _218
REMARK   72  A    between atoms: _218  and  _219
REMARK   73  A    between atoms: _218  and  _221
REMARK   74  A    between atoms: _224  and  _226
REMARK   75  A    between atoms: _226  and  _227
REMARK   76  A    between atoms: _226  and  _229
REMARK   77  A    between atoms: _229  and  _230
REMARK   78  A    between atoms: _233  and  _235
REMARK   79  A    between atoms: _235  and  _236
REMARK   80  A    between atoms: _235  and  _238
REMARK   81  A    between atoms: _238  and  _239
REMARK   82  A    between atoms: _239  and  _240
REMARK   83  A    between atoms: _243  and  _245
REMARK   84  A    between atoms: _245  and  _246
REMARK   85  A    between atoms: _245  and  _248
REMARK   86  A    between atoms: _248  and  _249
REMARK   87  A    between atoms: _249  and  _251
REMARK   88  A    between atoms: _251  and  MN_300
REMARK   89  A    between atoms: _252  and  _254
REMARK   90  A    between atoms: _254  and  _255
REMARK   91  A    between atoms: _254  and  _257
REMARK   92  A    between atoms: _257  and  _258
REMARK   93  A    between atoms: _261  and  _263
REMARK   94  A    between atoms: _263  and  _264
REMARK   95  A    between atoms: _266  and  _268
REMARK   96  A    between atoms: _268  and  _269
REMARK   97  A    between atoms: _268  and  _271
REMARK   98  A    between atoms: _271  and  _272
REMARK   99  A    between atoms: _276  and  _277
REMARK  100  A    between atoms: _282  and  _284
REMARK  101  A    between atoms: _284  and  _285
REMARK  102  A    between atoms: _284  and  _287
REMARK  103  A    between atoms: _290  and  _292
REMARK  104  A    between atoms: _292  and  _293
REMARK  105  A    between atoms: _292  and  _295
REMARK  106  A    between atoms: _295  and  _296
REMARK  107  A    between atoms: _296  and  _297
REMARK                            x       y       z     vdW  Elec       q    Type
REMARK                         _______ _______ _______ _____ _____    ______ ____
ROOT
ATOM      1  CA  THR A   2      -8.787 -31.308  -6.662  0.00  0.00    +0.176 C 
ENDROOT
BRANCH   1   4
ATOM      2  C   THR A   1      -7.404 -32.330  -4.979  0.00  0.00    +0.241 C 
ATOM      3  O   THR A   1      -7.957 -33.406  -5.203  0.00  0.00    -0.274 OA
ATOM      4  N   THR A   2      -7.787 -31.208  -5.598  0.00  0.00    -0.295 N 
ATOM      5  H   THR A   2      -7.384 -30.287  -5.330  0.00  0.00    +0.150 HD
BRANCH   2   6
ATOM      6  CA  THR A   1      -6.247 -32.257  -3.991  0.00  0.00    +0.172 C 
BRANCH   6   7
ATOM      7  N   THR A   1      -6.496 -33.118  -2.830  0.00  0.00    -0.236 NA
ATOM      8  H   THR A   1      -5.874 -33.918  -2.595  0.00  0.00    +0.142 HD
ENDBRANCH   6   7
BRANCH   6   9
ATOM      9  CB  THR A   1      -4.960 -32.624  -4.747  0.00  0.00    +0.135 C 
ATOM     10  CG2 THR A   1      -5.056 -33.968  -5.454  0.00  0.00    +0.034 C 
BRANCH   9  11
ATOM     11  OG1 THR A   1      -4.770 -31.675  -5.801  0.00  0.00    -0.383 OA
ATOM     12  HG1 THR A   1      -4.690 -30.767  -5.415  0.00  0.00    +0.210 HD
ENDBRANCH   9  11
ENDBRANCH   6   9
ENDBRANCH   2   6
ENDBRANCH   1   4
BRANCH   1  13
ATOM     13  C   THR A   2      -8.118 -31.209  -8.037  0.00  0.00    +0.243 C 
ATOM     14  N   SER A   3      -6.984 -30.537  -8.093  0.00  0.00    -0.296 N 
ATOM     15  H   SER A   3      -6.602 -30.159  -7.203  0.00  0.00    +0.150 HD
ATOM     16  O   THR A   2      -8.630 -31.719  -9.036  0.00  0.00    -0.273 OA
BRANCH  14  17
ATOM     17  CA  SER A   3      -6.228 -30.287  -9.314  0.00  0.00    +0.166 C 
BRANCH  17  18
ATOM     18  C   SER A   3      -5.290 -31.436  -9.649  0.00  0.00    +0.229 C 
ATOM     19  O   SER A   3      -5.022 -31.793 -10.804  0.00  0.00    -0.286 OA
ENDBRANCH  17  18
BRANCH  17  20
ATOM     20  CB  SER A   3      -5.447 -28.977  -9.116  0.00  0.00    +0.165 C 
BRANCH  20  21
ATOM     21  OG  SER A   3      -4.249 -29.218  -8.394  0.00  0.00    -0.380 OA
ATOM     22  H   SER A   3      -3.759 -28.366  -8.276  0.00  0.00    +0.211 HD
ENDBRANCH  20  21
ENDBRANCH  17  20
ENDBRANCH  14  17
ENDBRANCH   1  13
BRANCH   1  23
ATOM     23  CB  THR A   2      -9.902 -30.249  -6.567  0.00  0.00    +0.137 C 
ATOM     24  CG2 THR A   2     -10.620 -30.345  -5.230  0.00  0.00    +0.034 C 
BRANCH  23  25
ATOM     25  OG1 THR A   2      -9.369 -28.926  -6.659  0.00  0.00    -0.382 OA
ATOM     26  HG1 THR A   2      -8.728 -28.777  -5.919  0.00  0.00    +0.210 HD
ENDBRANCH  23  25
ENDBRANCH   1  23
TORSDOF 12
REMARK  Name = ../refined-set-2016/3mjl/3mjl_pocket.pdb
REMARK  107 active torsions:
REMARK  status: ('A' for Active; 'I' for Inactive)
REMARK    1  A    between atoms: _1  and  _3
REMARK    2  A    between atoms: _3  and  _4
REMARK    3  A    between atoms: _6  and  _8
REMARK    4  A    between atoms: _8  and  _9
REMARK    5  A    between atoms: _8  and  _11
REMARK    6  A    between atoms: _11  and  _12
REMARK    7  A    between atoms: _12  and  _13
REMARK    8  A    between atoms: _18  and  _20
REMARK    9  A    between atoms: _20  and  _21
REMARK   10  A    between atoms: _20  and  _23
REMARK   11  A    between atoms: _23  and  _24
REMARK   12  A    between atoms: _24  and  _25
REMARK   13  A    between atoms: _25  and  _26
REMARK   14  A    between atoms: _35  and  _37
REMARK   15  A    between atoms: _37  and  _38
REMARK   16  A    between atoms: _37  and  _40
REMARK   17  A    between atoms: _40  and  _41
REMARK   18  A    between atoms: _42  and  MN_301
REMARK   19  A    between atoms: _46  and  _48
REMARK   20  A    between atoms: _48  and  _49
REMARK   21  A    between atoms: _48  and  _51
REMARK   22  A    between atoms: _51  and  _52
REMARK   23  A    between atoms: _62  and  _64
REMARK   24  A    between atoms: _90  and  _93
REMARK   25  A    between atoms: _93  and  _94
REMARK   26  A    between atoms: _99  and  _100
REMARK   27  A    between atoms: _106  and  _108
REMARK   28  A    between atoms: _108  and  _109
REMARK   29  A    between atoms: _108  and  _111
REMARK   30  A    between atoms: _111  and  _112
REMARK   31  A    between atoms: _115  and  _117
REMARK   32  A    between atoms: _117  and  _118
REMARK   33  A    between atoms: _117  and  _120
REMARK   34  A    between atoms: _120  and  _121
REMARK   35  A    between atoms: _126  and  _128
REMARK   36  A    between atoms: _128  and  _129
REMARK   37  A    between atoms: _128  and  _131
REMARK   38  A    between atoms: _131  and  _132
REMARK   39  A    between atoms: _135  and  _137
REMARK   40  A    between atoms: _137  and  _138
REMARK   41  A    between atoms: _137  and  _140
REMARK   42  A    between atoms: _140  and  _141
REMARK   43  A    between atoms: _144  and  _146
REMARK   44  A    between atoms: _146  and  _147
REMARK   45  A    between atoms: _146  and  _149
REMARK   46  A    between atoms: _149  and  _150
REMARK   47  A    between atoms: _152  and  _154
REMARK   48  A    between atoms: _154  and  _155
REMARK   49  A    between atoms: _154  and  _157
REMARK   50  A    between atoms: _157  and  _158
REMARK   51  A    between atoms: _163  and  _165
REMARK   52  A    between atoms: _165  and  _166
REMARK   53  A    between atoms: _165  and  _168
REMARK   54  A    between atoms: _168  and  _169
REMARK   55  A    between atoms: _172  and  _174
REMARK   56  A    between atoms: _174  and  _175
REMARK   57  A    between atoms: _174  and  _177
REMARK   58  A    between atoms: _177  and  _178
REMARK   59  A    between atoms: _183  and  _185
REMARK   60  A    between atoms: _185  and  _186
REMARK   61  A    between atoms: _188  and  _190
REMARK   62  A    between atoms: _190  and  _191
REMARK   63  A    between atoms: _190  and  _193
REMARK   64  A    between atoms: _193  and  _194
REMARK   65  A    between atoms: _194  and  _195
REMARK   66  A    between atoms: _201  and  _202
REMARK   67  A    between atoms: _207  and  _209
REMARK   68  A    between atoms: _209  and  _210
REMARK   69  A    between atoms: _209  and  _212
REMARK   70  A    between atoms: _212  and  _213
REMARK   71  A    between atoms: _216  and  _218
REMARK   72  A    between atoms: _218  and  _219
REMARK   73  A    between atoms: _218  and  _221
REMARK   74  A    between atoms: _224  and  _226
REMARK   75  A    between atoms: _226  and  _227
REMARK   76  A    between atoms: _226  and  _229
REMARK   77  A    between atoms: _229  and  _230
REMARK   78  A    between atoms: _233  and  _235
REMARK   79  A    between atoms: _235  and  _236
REMARK   80  A    between atoms: _235  and  _238
REMARK   81  A    between atoms: _238  and  _239
REMARK   82  A    between atoms: _239  and  _240
REMARK   83  A    between atoms: _243  and  _245
REMARK   84  A    between atoms: _245  and  _246
REMARK   85  A    between atoms: _245  and  _248
REMARK   86  A    between atoms: _248  and  _249
REMARK   87  A    between atoms: _249  and  _251
REMARK   88  A    between atoms: _251  and  MN_300
REMARK   89  A    between atoms: _252  and  _254
REMARK   90  A    between atoms: _254  and  _255
REMARK   91  A    between atoms: _254  and  _257
REMARK   92  A    between atoms: _257  and  _258
REMARK   93  A    between atoms: _261  and  _263
REMARK   94  A    between atoms: _263  and  _264
REMARK   95  A    between atoms: _266  and  _268
REMARK   96  A    between atoms: _268  and  _269
REMARK   97  A    between atoms: _268  and  _271
REMARK   98  A    between atoms: _271  and  _272
REMARK   99  A    between atoms: _276  and  _277
REMARK  100  A    between atoms: _282  and  _284
REMARK  101  A    between atoms: _284  and  _285
REMARK  102  A    between atoms: _284  and  _287
REMARK  103  A    between atoms: _290  and  _292
REMARK  104  A    between atoms: _292  and  _293
REMARK  105  A    between atoms: _292  and  _295
REMARK  106  A    between atoms: _295  and  _296
REMARK  107  A    between atoms: _296  and  _297
REMARK                            x       y       z     vdW  Elec       q    Type
REMARK                         _______ _______ _______ _____ _____    ______ ____
ROOT
ATOM      1  CA  HIS A   3       3.082 -28.047  -6.087  0.00  0.00    +0.155 C 
ENDROOT
BRANCH   1   2
ATOM      2  C   HIS A   3       2.149 -27.347  -5.099  0.00  0.00    +0.241 C 
ATOM      3  O   HIS A   3       2.547 -26.275  -4.641  0.00  0.00    -0.273 OA
ATOM      4  N   GLY A   4       0.983 -27.887  -4.862  0.00  0.00    -0.295 N 
ATOM      5  H   GLY A   4       0.840 -28.794  -5.350  0.00  0.00    +0.150 HD
BRANCH   4   6
ATOM      6  CA  GLY A   4      -0.145 -27.483  -4.063  0.00  0.00    +0.176 C 
BRANCH   6   7
ATOM      7  C   GLY A   4      -0.353 -28.471  -2.911  0.00  0.00    +0.243 C 
ATOM      8  O   GLY A   4      -1.301 -28.363  -2.139  0.00  0.00    -0.273 OA
ATOM      9  N   GLN A   5       0.549 -29.432  -2.835  0.00  0.00    -0.297 N 
ATOM     10  H   GLN A   5       1.296 -29.400  -3.558  0.00  0.00    +0.150 HD
BRANCH   9  11
ATOM     11  CA  GLN A   5       0.646 -30.516  -1.896  0.00  0.00    +0.149 C 
BRANCH  11  12
ATOM     12  C   GLN A   5       1.924 -30.574  -1.064  0.00  0.00    +0.244 C 
ATOM     13  O   GLN A   5       1.854 -31.394  -0.128  0.00  0.00    -0.273 OA
ATOM     14  N   PRO A   6       3.039 -29.890  -1.260  0.00  0.00    -0.273 N 
ATOM     15  CA  PRO A   6       4.287 -30.293  -0.576  0.00  0.00    +0.140 C 
ATOM     16  CB  PRO A   6       5.292 -29.224  -0.968  0.00  0.00    +0.030 C 
ATOM     17  CG  PRO A   6       4.447 -28.042  -1.302  0.00  0.00    +0.024 C 
ATOM     18  CD  PRO A   6       3.330 -28.694  -2.069  0.00  0.00    +0.094 C 
BRANCH  15  19
ATOM     19  C   PRO A   6       4.187 -30.305   0.950  0.00  0.00    +0.227 C 
ATOM     20  O   PRO A   6       4.871 -31.090   1.598  0.00  0.00    -0.286 OA
ENDBRANCH  15  19
ENDBRANCH  11  12
BRANCH  11  21
ATOM     21  CB  GLN A   5       0.534 -31.855  -2.674  0.00  0.00    +0.039 C 
BRANCH  21  22
ATOM     22  CG  GLN A   5      -0.824 -31.957  -3.353  0.00  0.00    +0.087 C 
BRANCH  22  23
ATOM     23  CD  GLN A   5      -1.053 -33.310  -3.984  0.00  0.00    +0.219 C 
ATOM     24  OE1 GLN A   5      -0.873 -34.345  -3.346  0.00  0.00    -0.275 OA
ATOM     25  NE2 GLN A   5      -1.451 -33.325  -5.252  0.00  0.00    -0.329 N 
ATOM     26 HE21 GLN A   5      -1.620 -34.231  -5.733  0.00  0.00    +0.145 HD
ATOM     27 HE22 GLN A   5      -1.594 -32.430  -5.763  0.00  0.00    +0.145 HD
ENDBRANCH  22  23
ENDBRANCH  21  22
ENDBRANCH  11  21
ENDBRANCH   9  11
ENDBRANCH   6   7
ENDBRANCH   4   6
ENDBRANCH   1   2
BRANCH   1  30
ATOM     28  C   LEU A   2       2.488 -30.387  -6.058  0.00  0.00    +0.241 C 
ATOM     29  O   LEU A   2       2.917 -30.409  -4.894  0.00  0.00    -0.273 OA
ATOM     30  N   HIS A   3       2.536 -29.245  -6.729  0.00  0.00    -0.297 N 
ATOM     31  H   HIS A   3       2.187 -29.200  -7.708  0.00  0.00    +0.150 HD
BRANCH  28  32
ATOM     32  CA  LEU A   2       1.904 -31.647  -6.670  0.00  0.00    +0.149 C 
BRANCH  32  35
ATOM     33  C   ASN A   1       0.018 -30.817  -7.898  0.00  0.00    +0.239 C 
ATOM     34  O   ASN A   1      -0.375 -30.281  -6.855  0.00  0.00    -0.274 OA
ATOM     35  N   LEU A   2       1.199 -31.439  -7.935  0.00  0.00    -0.297 N 
ATOM     36  H   LEU A   2       1.605 -31.765  -8.835  0.00  0.00    +0.150 HD
BRANCH  33  37
ATOM     37  CA  ASN A   1      -0.824 -30.745  -9.161  0.00  0.00    +0.154 C 
BRANCH  37  38
ATOM     38  N   ASN A   1      -2.173 -31.301  -8.995  0.00  0.00    -0.238 NA
ATOM     39  H   ASN A   1      -2.991 -30.664  -8.912  0.00  0.00    +0.142 HD
ENDBRANCH  37  38
BRANCH  37  40
ATOM     40  CB  ASN A   1      -0.920 -29.285  -9.597  0.00  0.00    +0.111 C 
BRANCH  40  41
ATOM     41  CG  ASN A   1      -1.715 -29.056 -10.871  0.00  0.00    +0.221 C 
ATOM     42  ND2 ASN A   1      -2.307 -27.867 -10.959  0.00  0.00    -0.329 N 
ATOM     43 HD21 ASN A   1      -2.197 -27.173 -10.192  0.00  0.00    +0.145 HD
ATOM     44 HD22 ASN A   1      -2.880 -27.632 -11.795  0.00  0.00    +0.145 HD
ATOM     45  OD1 ASN A   1      -1.819 -29.906 -11.755  0.00  0.00    -0.275 OA
ENDBRANCH  40  41
ENDBRANCH  37  40
ENDBRANCH  33  37
ENDBRANCH  32  35
BRANCH  32  46
ATOM     46  CB  LEU A   2       2.968 -32.738  -6.862  0.00  0.00    +0.029 C 
BRANCH  46  47
ATOM     47  CG  LEU A   2       2.436 -34.167  -6.704  0.00  0.00    +0.002 C 
ATOM     48  CD2 LEU A   2       2.274 -34.547  -5.231  0.00  0.00    +0.000 C 
ATOM     49  CD1 LEU A   2       3.348 -35.153  -7.424  0.00  0.00    +0.000 C 
ENDBRANCH  46  47
ENDBRANCH  32  46
ENDBRANCH  28  32
ENDBRANCH   1  30
BRANCH   1  50
ATOM     50  CB  HIS A   3       3.417 -27.033  -7.178  0.00  0.00    +0.076 C 
BRANCH  50  51
ATOM     51  CG  HIS A   3       2.252 -26.349  -7.829  0.00  0.00    +0.082 A 
ATOM     52  CD2 HIS A   3       0.968 -26.670  -8.090  0.00  0.00    +0.115 A 
ATOM     53  NE2 HIS A   3       0.375 -25.598  -8.716  0.00  0.00    -0.221 NA
ATOM     54  CE1 HIS A   3       1.280 -24.638  -8.866  0.00  0.00    +0.199 A 
ATOM     55  ND1 HIS A   3       2.416 -25.063  -8.339  0.00  0.00    -0.227 NA
ENDBRANCH  50  51
ENDBRANCH   1  50
TORSDOF 20
REMARK  Name = ../refined-set-2016/3mjl/3mjl_pocket.pdb
REMARK  107 active torsions:
REMARK  status: ('A' for Active; 'I' for Inactive)
REMARK    1  A    between atoms: _1  and  _3
REMARK    2  A    between atoms: _3  and  _4
REMARK    3  A    between atoms: _6  and  _8
REMARK    4  A    between atoms: _8  and  _9
REMARK    5  A    between atoms: _8  and  _11
REMARK    6  A    between atoms: _11  and  _12
REMARK    7  A    between atoms: _12  and  _13
REMARK    8  A    between atoms: _18  and  _20
REMARK    9  A    between atoms: _20  and  _21
REMARK   10  A    between atoms: _20  and  _23
REMARK   11  A    between atoms: _23  and  _24
REMARK   12  A    between atoms: _24  and  _25
REMARK   13  A    between atoms: _25  and  _26
REMARK   14  A    between atoms: _35  and  _37
REMARK   15  A    between atoms: _37  and  _38
REMARK   16  A    between atoms: _37  and  _40
REMARK   17  A    between atoms: _40  and  _41
REMARK   18  A    between atoms: _42  and  MN_301
REMARK   19  A    between atoms: _46  and  _48
REMARK   20  A    between atoms: _48  and  _49
REMARK   21  A    between atoms: _48  and  _51
REMARK   22  A    between atoms: _51  and  _52
REMARK   23  A    between atoms: _62  and  _64
REMARK   24  A    between atoms: _90  and  _93
REMARK   25  A    between atoms: _93  and  _94
REMARK   26  A    between atoms: _99  and  _100
REMARK   27  A    between atoms: _106  and  _108
REMARK   28  A    between atoms: _108  and  _109
REMARK   29  A    between atoms: _108  and  _111
REMARK   30  A    between atoms: _111  and  _112
REMARK   31  A    between atoms: _115  and  _117
REMARK   32  A    between atoms: _117  and  _118
REMARK   33  A    between atoms: _117  and  _120
REMARK   34  A    between atoms: _120  and  _121
REMARK   35  A    between atoms: _126  and  _128
REMARK   36  A    between atoms: _128  and  _129
REMARK   37  A    between atoms: _128  and  _131
REMARK   38  A    between atoms: _131  and  _132
REMARK   39  A    between atoms: _135  and  _137
REMARK   40  A    between atoms: _137  and  _138
REMARK   41  A    between atoms: _137  and  _140
REMARK   42  A    between atoms: _140  and  _141
REMARK   43  A    between atoms: _144  and  _146
REMARK   44  A    between atoms: _146  and  _147
REMARK   45  A    between atoms: _146  and  _149
REMARK   46  A    between atoms: _149  and  _150
REMARK   47  A    between atoms: _152  and  _154
REMARK   48  A    between atoms: _154  and  _155
REMARK   49  A    between atoms: _154  and  _157
REMARK   50  A    between atoms: _157  and  _158
REMARK   51  A    between atoms: _163  and  _165
REMARK   52  A    between atoms: _165  and  _166
REMARK   53  A    between atoms: _165  and  _168
REMARK   54  A    between atoms: _168  and  _169
REMARK   55  A    between atoms: _172  and  _174
REMARK   56  A    between atoms: _174  and  _175
REMARK   57  A    between atoms: _174  and  _177
REMARK   58  A    between atoms: _177  and  _178
REMARK   59  A    between atoms: _183  and  _185
REMARK   60  A    between atoms: _185  and  _186
REMARK   61  A    between atoms: _188  and  _190
REMARK   62  A    between atoms: _190  and  _191
REMARK   63  A    between atoms: _190  and  _193
REMARK   64  A    between atoms: _193  and  _194
REMARK   65  A    between atoms: _194  and  _195
REMARK   66  A    between atoms: _201  and  _202
REMARK   67  A    between atoms: _207  and  _209
REMARK   68  A    between atoms: _209  and  _210
REMARK   69  A    between atoms: _209  and  _212
REMARK   70  A    between atoms: _212  and  _213
REMARK   71  A    between atoms: _216  and  _218
REMARK   72  A    between atoms: _218  and  _219
REMARK   73  A    between atoms: _218  and  _221
REMARK   74  A    between atoms: _224  and  _226
REMARK   75  A    between atoms: _226  and  _227
REMARK   76  A    between atoms: _226  and  _229
REMARK   77  A    between atoms: _229  and  _230
REMARK   78  A    between atoms: _233  and  _235
REMARK   79  A    between atoms: _235  and  _236
REMARK   80  A    between atoms: _235  and  _238
REMARK   81  A    between atoms: _238  and  _239
REMARK   82  A    between atoms: _239  and  _240
REMARK   83  A    between atoms: _243  and  _245
REMARK   84  A    between atoms: _245  and  _246
REMARK   85  A    between atoms: _245  and  _248
REMARK   86  A    between atoms: _248  and  _249
REMARK   87  A    between atoms: _249  and  _251
REMARK   88  A    between atoms: _251  and  MN_300
REMARK   89  A    between atoms: _252  and  _254
REMARK   90  A    between atoms: _254  and  _255
REMARK   91  A    between atoms: _254  and  _257
REMARK   92  A    between atoms: _257  and  _258
REMARK   93  A    between atoms: _261  and  _263
REMARK   94  A    between atoms: _263  and  _264
REMARK   95  A    between atoms: _266  and  _268
REMARK   96  A    between atoms: _268  and  _269
REMARK   97  A    between atoms: _268  and  _271
REMARK   98  A    between atoms: _271  and  _272
REMARK   99  A    between atoms: _276  and  _277
REMARK  100  A    between atoms: _282  and  _284
REMARK  101  A    between atoms: _284  and  _285
REMARK  102  A    between atoms: _284  and  _287
REMARK  103  A    between atoms: _290  and  _292
REMARK  104  A    between atoms: _292  and  _293
REMARK  105  A    between atoms: _292  and  _295
REMARK  106  A    between atoms: _295  and  _296
REMARK  107  A    between atoms: _296  and  _297
REMARK                            x       y       z     vdW  Elec       q    Type
REMARK                         _______ _______ _______ _____ _____    ______ ____
ROOT
ATOM      1  CA  VAL A   2      -6.907 -21.537   0.419  0.00  0.00    +0.148 C 
ENDROOT
BRANCH   1   3
ATOM      2  C   ASP A   1      -6.186 -20.038  -1.410  0.00  0.00    +0.239 C 
ATOM      3  N   VAL A   2      -6.979 -20.332  -0.387  0.00  0.00    -0.297 N 
ATOM      4  H   VAL A   2      -7.715 -19.639  -0.142  0.00  0.00    +0.150 HD
ATOM      5  O   ASP A   1      -5.399 -20.884  -1.842  0.00  0.00    -0.274 OA
BRANCH   2   6
ATOM      6  CA  ASP A   1      -6.353 -18.638  -1.990  0.00  0.00    +0.156 C 
BRANCH   6   7
ATOM      7  N   ASP A   1      -5.660 -17.633  -1.180  0.00  0.00    -0.238 NA
ATOM      8  H   ASP A   1      -4.728 -17.862  -0.778  0.00  0.00    +0.142 HD
ENDBRANCH   6   7
BRANCH   6   9
ATOM      9  CB  ASP A   1      -5.887 -18.590  -3.458  0.00  0.00    +0.140 C 
BRANCH   9  10
ATOM     10  CG  ASP A   1      -6.786 -19.363  -4.394  0.00  0.00    +0.367 C 
ATOM     11  OD2 ASP A   1      -7.747 -20.022  -3.953  0.00  0.00    -0.246 OA
ATOM     12  OD1 ASP A   1      -6.551 -19.321  -5.614  0.00  0.00    -0.246 OA
ENDBRANCH   9  10
ENDBRANCH   6   9
ENDBRANCH   2   6
ENDBRANCH   1   3
BRANCH   1  13
ATOM     13  C   VAL A   2      -8.092 -22.476   0.216  0.00  0.00    +0.241 C 
ATOM     14  O   VAL A   2      -9.226 -22.023   0.420  0.00  0.00    -0.273 OA
ATOM     15  N   ASP A   3      -7.907 -23.744  -0.150  0.00  0.00    -0.298 N 
ATOM     16  H   ASP A   3      -6.944 -24.123  -0.256  0.00  0.00    +0.150 HD
BRANCH  15  17
ATOM     17  CA  ASP A   3      -9.069 -24.600  -0.402  0.00  0.00    +0.148 C 
BRANCH  17  18
ATOM     18  C   ASP A   3      -9.858 -24.883   0.869  0.00  0.00    +0.227 C 
ATOM     19  O   ASP A   3      -9.323 -24.608   1.943  0.00  0.00    -0.286 OA
ENDBRANCH  17  18
BRANCH  17  20
ATOM     20  CB  ASP A   3      -8.613 -25.924  -1.011  0.00  0.00    +0.142 C 
BRANCH  20  21
ATOM     21  CG  ASP A   3      -8.088 -25.779  -2.427  0.00  0.00    +0.367 C 
ATOM     22  OD2 ASP A   3      -7.269 -26.631  -2.844  0.00  0.00    -0.246 OA
ATOM     23  OD1 ASP A   3      -8.505 -24.812  -3.108  0.00  0.00    -0.246 OA
ENDBRANCH  20  21
ENDBRANCH  17  20
ENDBRANCH  15  17
ENDBRANCH   1  13
BRANCH   1  24
ATOM     24  CB  VAL A   2      -6.900 -21.159   1.922  0.00  0.00    +0.027 C 
ATOM     25  CG2 VAL A   2      -6.960 -22.451   2.718  0.00  0.00    +0.002 C 
ATOM     26  CG1 VAL A   2      -5.687 -20.312   2.280  0.00  0.00    +0.002 C 
ENDBRANCH   1  24
TORSDOF 11
REMARK  Name = ../refined-set-2016/3mjl/3mjl_pocket.pdb
REMARK  107 active torsions:
REMARK  status: ('A' for Active; 'I' for Inactive)
REMARK    1  A    between atoms: _1  and  _3
REMARK    2  A    between atoms: _3  and  _4
REMARK    3  A    between atoms: _6  and  _8
REMARK    4  A    between atoms: _8  and  _9
REMARK    5  A    between atoms: _8  and  _11
REMARK    6  A    between atoms: _11  and  _12
REMARK    7  A    between atoms: _12  and  _13
REMARK    8  A    between atoms: _18  and  _20
REMARK    9  A    between atoms: _20  and  _21
REMARK   10  A    between atoms: _20  and  _23
REMARK   11  A    between atoms: _23  and  _24
REMARK   12  A    between atoms: _24  and  _25
REMARK   13  A    between atoms: _25  and  _26
REMARK   14  A    between atoms: _35  and  _37
REMARK   15  A    between atoms: _37  and  _38
REMARK   16  A    between atoms: _37  and  _40
REMARK   17  A    between atoms: _40  and  _41
REMARK   18  A    between atoms: _42  and  MN_301
REMARK   19  A    between atoms: _46  and  _48
REMARK   20  A    between atoms: _48  and  _49
REMARK   21  A    between atoms: _48  and  _51
REMARK   22  A    between atoms: _51  and  _52
REMARK   23  A    between atoms: _62  and  _64
REMARK   24  A    between atoms: _90  and  _93
REMARK   25  A    between atoms: _93  and  _94
REMARK   26  A    between atoms: _99  and  _100
REMARK   27  A    between atoms: _106  and  _108
REMARK   28  A    between atoms: _108  and  _109
REMARK   29  A    between atoms: _108  and  _111
REMARK   30  A    between atoms: _111  and  _112
REMARK   31  A    between atoms: _115  and  _117
REMARK   32  A    between atoms: _117  and  _118
REMARK   33  A    between atoms: _117  and  _120
REMARK   34  A    between atoms: _120  and  _121
REMARK   35  A    between atoms: _126  and  _128
REMARK   36  A    between atoms: _128  and  _129
REMARK   37  A    between atoms: _128  and  _131
REMARK   38  A    between atoms: _131  and  _132
REMARK   39  A    between atoms: _135  and  _137
REMARK   40  A    between atoms: _137  and  _138
REMARK   41  A    between atoms: _137  and  _140
REMARK   42  A    between atoms: _140  and  _141
REMARK   43  A    between atoms: _144  and  _146
REMARK   44  A    between atoms: _146  and  _147
REMARK   45  A    between atoms: _146  and  _149
REMARK   46  A    between atoms: _149  and  _150
REMARK   47  A    between atoms: _152  and  _154
REMARK   48  A    between atoms: _154  and  _155
REMARK   49  A    between atoms: _154  and  _157
REMARK   50  A    between atoms: _157  and  _158
REMARK   51  A    between atoms: _163  and  _165
REMARK   52  A    between atoms: _165  and  _166
REMARK   53  A    between atoms: _165  and  _168
REMARK   54  A    between atoms: _168  and  _169
REMARK   55  A    between atoms: _172  and  _174
REMARK   56  A    between atoms: _174  and  _175
REMARK   57  A    between atoms: _174  and  _177
REMARK   58  A    between atoms: _177  and  _178
REMARK   59  A    between atoms: _183  and  _185
REMARK   60  A    between atoms: _185  and  _186
REMARK   61  A    between atoms: _188  and  _190
REMARK   62  A    between atoms: _190  and  _191
REMARK   63  A    between atoms: _190  and  _193
REMARK   64  A    between atoms: _193  and  _194
REMARK   65  A    between atoms: _194  and  _195
REMARK   66  A    between atoms: _201  and  _202
REMARK   67  A    between atoms: _207  and  _209
REMARK   68  A    between atoms: _209  and  _210
REMARK   69  A    between atoms: _209  and  _212
REMARK   70  A    between atoms: _212  and  _213
REMARK   71  A    between atoms: _216  and  _218
REMARK   72  A    between atoms: _218  and  _219
REMARK   73  A    between atoms: _218  and  _221
REMARK   74  A    between atoms: _224  and  _226
REMARK   75  A    between atoms: _226  and  _227
REMARK   76  A    between atoms: _226  and  _229
REMARK   77  A    between atoms: _229  and  _230
REMARK   78  A    between atoms: _233  and  _235
REMARK   79  A    between atoms: _235  and  _236
REMARK   80  A    between atoms: _235  and  _238
REMARK   81  A    between atoms: _238  and  _239
REMARK   82  A    between atoms: _239  and  _240
REMARK   83  A    between atoms: _243  and  _245
REMARK   84  A    between atoms: _245  and  _246
REMARK   85  A    between atoms: _245  and  _248
REMARK   86  A    between atoms: _248  and  _249
REMARK   87  A    between atoms: _249  and  _251
REMARK   88  A    between atoms: _251  and  MN_300
REMARK   89  A    between atoms: _252  and  _254
REMARK   90  A    between atoms: _254  and  _255
REMARK   91  A    between atoms: _254  and  _257
REMARK   92  A    between atoms: _257  and  _258
REMARK   93  A    between atoms: _261  and  _263
REMARK   94  A    between atoms: _263  and  _264
REMARK   95  A    between atoms: _266  and  _268
REMARK   96  A    between atoms: _268  and  _269
REMARK   97  A    between atoms: _268  and  _271
REMARK   98  A    between atoms: _271  and  _272
REMARK   99  A    between atoms: _276  and  _277
REMARK  100  A    between atoms: _282  and  _284
REMARK  101  A    between atoms: _284  and  _285
REMARK  102  A    between atoms: _284  and  _287
REMARK  103  A    between atoms: _290  and  _292
REMARK  104  A    between atoms: _292  and  _293
REMARK  105  A    between atoms: _292  and  _295
REMARK  106  A    between atoms: _295  and  _296
REMARK  107  A    between atoms: _296  and  _297
REMARK                            x       y       z     vdW  Elec       q    Type
REMARK                         _______ _______ _______ _____ _____    ______ ____
ROOT
ATOM      1  CA  GLU A   1      -6.748 -27.032   3.373  0.00  0.00    +0.134 C 
ENDROOT
BRANCH   1   2
ATOM      2  N   GLU A   1      -7.974 -27.634   2.819  0.00  0.00    -0.239 NA
ATOM      3  H   GLU A   1      -8.295 -27.395   1.859  0.00  0.00    +0.142 HD
ENDBRANCH   1   2
BRANCH   1   4
ATOM      4  C   GLU A   1      -7.075 -26.229   4.622  0.00  0.00    +0.224 C 
ATOM      5  O   GLU A   1      -6.439 -26.308   5.657  0.00  0.00    -0.287 OA
ENDBRANCH   1   4
BRANCH   1   6
ATOM      6  CB  GLU A   1      -6.080 -26.138   2.331  0.00  0.00    +0.037 C 
BRANCH   6   7
ATOM      7  CG  GLU A   1      -5.491 -26.932   1.155  0.00  0.00    +0.116 C 
BRANCH   7   8
ATOM      8  CD  GLU A   1      -4.807 -25.979   0.181  0.00  0.00    +0.365 C 
ATOM      9  OE2 GLU A   1      -3.565 -25.928   0.122  0.00  0.00    -0.246 OA
ATOM     10  OE1 GLU A   1      -5.584 -25.264  -0.479  0.00  0.00    -0.246 OA
ENDBRANCH   7   8
ENDBRANCH   6   7
ENDBRANCH   1   6
TORSDOF 5
REMARK  Name = ../refined-set-2016/3mjl/3mjl_pocket.pdb
REMARK  107 active torsions:
REMARK  status: ('A' for Active; 'I' for Inactive)
REMARK    1  A    between atoms: _1  and  _3
REMARK    2  A    between atoms: _3  and  _4
REMARK    3  A    between atoms: _6  and  _8
REMARK    4  A    between atoms: _8  and  _9
REMARK    5  A    between atoms: _8  and  _11
REMARK    6  A    between atoms: _11  and  _12
REMARK    7  A    between atoms: _12  and  _13
REMARK    8  A    between atoms: _18  and  _20
REMARK    9  A    between atoms: _20  and  _21
REMARK   10  A    between atoms: _20  and  _23
REMARK   11  A    between atoms: _23  and  _24
REMARK   12  A    between atoms: _24  and  _25
REMARK   13  A    between atoms: _25  and  _26
REMARK   14  A    between atoms: _35  and  _37
REMARK   15  A    between atoms: _37  and  _38
REMARK   16  A    between atoms: _37  and  _40
REMARK   17  A    between atoms: _40  and  _41
REMARK   18  A    between atoms: _42  and  MN_301
REMARK   19  A    between atoms: _46  and  _48
REMARK   20  A    between atoms: _48  and  _49
REMARK   21  A    between atoms: _48  and  _51
REMARK   22  A    between atoms: _51  and  _52
REMARK   23  A    between atoms: _62  and  _64
REMARK   24  A    between atoms: _90  and  _93
REMARK   25  A    between atoms: _93  and  _94
REMARK   26  A    between atoms: _99  and  _100
REMARK   27  A    between atoms: _106  and  _108
REMARK   28  A    between atoms: _108  and  _109
REMARK   29  A    between atoms: _108  and  _111
REMARK   30  A    between atoms: _111  and  _112
REMARK   31  A    between atoms: _115  and  _117
REMARK   32  A    between atoms: _117  and  _118
REMARK   33  A    between atoms: _117  and  _120
REMARK   34  A    between atoms: _120  and  _121
REMARK   35  A    between atoms: _126  and  _128
REMARK   36  A    between atoms: _128  and  _129
REMARK   37  A    between atoms: _128  and  _131
REMARK   38  A    between atoms: _131  and  _132
REMARK   39  A    between atoms: _135  and  _137
REMARK   40  A    between atoms: _137  and  _138
REMARK   41  A    between atoms: _137  and  _140
REMARK   42  A    between atoms: _140  and  _141
REMARK   43  A    between atoms: _144  and  _146
REMARK   44  A    between atoms: _146  and  _147
REMARK   45  A    between atoms: _146  and  _149
REMARK   46  A    between atoms: _149  and  _150
REMARK   47  A    between atoms: _152  and  _154
REMARK   48  A    between atoms: _154  and  _155
REMARK   49  A    between atoms: _154  and  _157
REMARK   50  A    between atoms: _157  and  _158
REMARK   51  A    between atoms: _163  and  _165
REMARK   52  A    between atoms: _165  and  _166
REMARK   53  A    between atoms: _165  and  _168
REMARK   54  A    between atoms: _168  and  _169
REMARK   55  A    between atoms: _172  and  _174
REMARK   56  A    between atoms: _174  and  _175
REMARK   57  A    between atoms: _174  and  _177
REMARK   58  A    between atoms: _177  and  _178
REMARK   59  A    between atoms: _183  and  _185
REMARK   60  A    between atoms: _185  and  _186
REMARK   61  A    between atoms: _188  and  _190
REMARK   62  A    between atoms: _190  and  _191
REMARK   63  A    between atoms: _190  and  _193
REMARK   64  A    between atoms: _193  and  _194
REMARK   65  A    between atoms: _194  and  _195
REMARK   66  A    between atoms: _201  and  _202
REMARK   67  A    between atoms: _207  and  _209
REMARK   68  A    between atoms: _209  and  _210
REMARK   69  A    between atoms: _209  and  _212
REMARK   70  A    between atoms: _212  and  _213
REMARK   71  A    between atoms: _216  and  _218
REMARK   72  A    between atoms: _218  and  _219
REMARK   73  A    between atoms: _218  and  _221
REMARK   74  A    between atoms: _224  and  _226
REMARK   75  A    between atoms: _226  and  _227
REMARK   76  A    between atoms: _226  and  _229
REMARK   77  A    between atoms: _229  and  _230
REMARK   78  A    between atoms: _233  and  _235
REMARK   79  A    between atoms: _235  and  _236
REMARK   80  A    between atoms: _235  and  _238
REMARK   81  A    between atoms: _238  and  _239
REMARK   82  A    between atoms: _239  and  _240
REMARK   83  A    between atoms: _243  and  _245
REMARK   84  A    between atoms: _245  and  _246
REMARK   85  A    between atoms: _245  and  _248
REMARK   86  A    between atoms: _248  and  _249
REMARK   87  A    between atoms: _249  and  _251
REMARK   88  A    between atoms: _251  and  MN_300
REMARK   89  A    between atoms: _252  and  _254
REMARK   90  A    between atoms: _254  and  _255
REMARK   91  A    between atoms: _254  and  _257
REMARK   92  A    between atoms: _257  and  _258
REMARK   93  A    between atoms: _261  and  _263
REMARK   94  A    between atoms: _263  and  _264
REMARK   95  A    between atoms: _266  and  _268
REMARK   96  A    between atoms: _268  and  _269
REMARK   97  A    between atoms: _268  and  _271
REMARK   98  A    between atoms: _271  and  _272
REMARK   99  A    between atoms: _276  and  _277
REMARK  100  A    between atoms: _282  and  _284
REMARK  101  A    between atoms: _284  and  _285
REMARK  102  A    between atoms: _284  and  _287
REMARK  103  A    between atoms: _290  and  _292
REMARK  104  A    between atoms: _292  and  _293
REMARK  105  A    between atoms: _292  and  _295
REMARK  106  A    between atoms: _295  and  _296
REMARK  107  A    between atoms: _296  and  _297
REMARK                            x       y       z     vdW  Elec       q    Type
REMARK                         _______ _______ _______ _____ _____    ______ ____
ROOT
ATOM      1  C   THR A   2      -1.088 -17.826  -9.484  0.00  0.00    +0.246 C 
ATOM      2  O   THR A   2      -1.047 -17.747  -8.248  0.00  0.00    -0.273 OA
ATOM      3  N   PRO A   3      -1.177 -16.704 -10.193  0.00  0.00    -0.272 N 
ATOM      4  CA  PRO A   3      -1.227 -15.408  -9.495  0.00  0.00    +0.152 C 
ATOM      5  CB  PRO A   3      -1.053 -14.394 -10.643  0.00  0.00    +0.031 C 
ATOM      6  CG  PRO A   3      -1.676 -15.107 -11.818  0.00  0.00    +0.024 C 
ATOM      7  CD  PRO A   3      -1.228 -16.540 -11.653  0.00  0.00    +0.094 C 
ENDROOT
BRANCH   4   8
ATOM      8  C   PRO A   3      -2.562 -15.147  -8.812  0.00  0.00    +0.241 C 
ATOM      9  N   VAL A   4      -2.569 -14.367  -7.723  0.00  0.00    -0.298 N 
ATOM     10  H   VAL A   4      -1.676 -14.000  -7.336  0.00  0.00    +0.150 HD
ATOM     11  O   PRO A   3      -3.605 -15.624  -9.262  0.00  0.00    -0.273 OA
BRANCH   9  12
ATOM     12  CA  VAL A   4      -3.841 -14.036  -7.083  0.00  0.00    +0.137 C 
BRANCH  12  13
ATOM     13  CB  VAL A   4      -4.135 -14.915  -5.856  0.00  0.00    +0.026 C 
ATOM     14  CG2 VAL A   4      -5.516 -14.543  -5.301  0.00  0.00    +0.002 C 
ATOM     15  CG1 VAL A   4      -4.079 -16.404  -6.138  0.00  0.00    +0.002 C 
ENDBRANCH  12  13
BRANCH  12  16
ATOM     16  C   VAL A   4      -3.819 -12.579  -6.631  0.00  0.00    +0.227 C 
ATOM     17  O   VAL A   4      -2.881 -12.124  -5.963  0.00  0.00    -0.286 OA
ENDBRANCH  12  16
ENDBRANCH   9  12
ENDBRANCH   4   8
BRANCH   1  18
ATOM     18  CA  THR A   2      -1.003 -19.153 -10.209  0.00  0.00    +0.176 C 
BRANCH  18  20
ATOM     19  C   GLY A   1       0.337 -19.588 -12.178  0.00  0.00    +0.240 C 
ATOM     20  N   THR A   2       0.295 -19.227 -10.898  0.00  0.00    -0.295 N 
ATOM     21  H   THR A   2       1.173 -18.999 -10.389  0.00  0.00    +0.150 HD
ATOM     22  O   GLY A   1      -0.714 -19.701 -12.821  0.00  0.00    -0.274 OA
BRANCH  19  23
ATOM     23  CA  GLY A   1       1.706 -19.853 -12.763  0.00  0.00    +0.169 C 
BRANCH  23  24
ATOM     24  N   GLY A   1       2.726 -18.929 -12.318  0.00  0.00    -0.236 NA
ATOM     25  H   GLY A   1       3.481 -19.329 -11.725  0.00  0.00    +0.142 HD
ENDBRANCH  23  24
ENDBRANCH  19  23
ENDBRANCH  18  20
BRANCH  18  26
ATOM     26  CB  THR A   2      -1.116 -20.349  -9.261  0.00  0.00    +0.137 C 
ATOM     27  CG2 THR A   2      -1.022 -21.686  -9.986  0.00  0.00    +0.034 C 
BRANCH  26  28
ATOM     28  OG1 THR A   2       0.017 -20.369  -8.368  0.00  0.00    -0.382 OA
ATOM     29  HG1 THR A   2       0.851 -20.445  -8.896  0.00  0.00    +0.210 HD
ENDBRANCH  26  28
ENDBRANCH  18  26
ENDBRANCH   1  18
TORSDOF 10
REMARK  Name = ../refined-set-2016/3mjl/3mjl_pocket.pdb
REMARK  107 active torsions:
REMARK  status: ('A' for Active; 'I' for Inactive)
REMARK    1  A    between atoms: _1  and  _3
REMARK    2  A    between atoms: _3  and  _4
REMARK    3  A    between atoms: _6  and  _8
REMARK    4  A    between atoms: _8  and  _9
REMARK    5  A    between atoms: _8  and  _11
REMARK    6  A    between atoms: _11  and  _12
REMARK    7  A    between atoms: _12  and  _13
REMARK    8  A    between atoms: _18  and  _20
REMARK    9  A    between atoms: _20  and  _21
REMARK   10  A    between atoms: _20  and  _23
REMARK   11  A    between atoms: _23  and  _24
REMARK   12  A    between atoms: _24  and  _25
REMARK   13  A    between atoms: _25  and  _26
REMARK   14  A    between atoms: _35  and  _37
REMARK   15  A    between atoms: _37  and  _38
REMARK   16  A    between atoms: _37  and  _40
REMARK   17  A    between atoms: _40  and  _41
REMARK   18  A    between atoms: _42  and  MN_301
REMARK   19  A    between atoms: _46  and  _48
REMARK   20  A    between atoms: _48  and  _49
REMARK   21  A    between atoms: _48  and  _51
REMARK   22  A    between atoms: _51  and  _52
REMARK   23  A    between atoms: _62  and  _64
REMARK   24  A    between atoms: _90  and  _93
REMARK   25  A    between atoms: _93  and  _94
REMARK   26  A    between atoms: _99  and  _100
REMARK   27  A    between atoms: _106  and  _108
REMARK   28  A    between atoms: _108  and  _109
REMARK   29  A    between atoms: _108  and  _111
REMARK   30  A    between atoms: _111  and  _112
REMARK   31  A    between atoms: _115  and  _117
REMARK   32  A    between atoms: _117  and  _118
REMARK   33  A    between atoms: _117  and  _120
REMARK   34  A    between atoms: _120  and  _121
REMARK   35  A    between atoms: _126  and  _128
REMARK   36  A    between atoms: _128  and  _129
REMARK   37  A    between atoms: _128  and  _131
REMARK   38  A    between atoms: _131  and  _132
REMARK   39  A    between atoms: _135  and  _137
REMARK   40  A    between atoms: _137  and  _138
REMARK   41  A    between atoms: _137  and  _140
REMARK   42  A    between atoms: _140  and  _141
REMARK   43  A    between atoms: _144  and  _146
REMARK   44  A    between atoms: _146  and  _147
REMARK   45  A    between atoms: _146  and  _149
REMARK   46  A    between atoms: _149  and  _150
REMARK   47  A    between atoms: _152  and  _154
REMARK   48  A    between atoms: _154  and  _155
REMARK   49  A    between atoms: _154  and  _157
REMARK   50  A    between atoms: _157  and  _158
REMARK   51  A    between atoms: _163  and  _165
REMARK   52  A    between atoms: _165  and  _166
REMARK   53  A    between atoms: _165  and  _168
REMARK   54  A    between atoms: _168  and  _169
REMARK   55  A    between atoms: _172  and  _174
REMARK   56  A    between atoms: _174  and  _175
REMARK   57  A    between atoms: _174  and  _177
REMARK   58  A    between atoms: _177  and  _178
REMARK   59  A    between atoms: _183  and  _185
REMARK   60  A    between atoms: _185  and  _186
REMARK   61  A    between atoms: _188  and  _190
REMARK   62  A    between atoms: _190  and  _191
REMARK   63  A    between atoms: _190  and  _193
REMARK   64  A    between atoms: _193  and  _194
REMARK   65  A    between atoms: _194  and  _195
REMARK   66  A    between atoms: _201  and  _202
REMARK   67  A    between atoms: _207  and  _209
REMARK   68  A    between atoms: _209  and  _210
REMARK   69  A    between atoms: _209  and  _212
REMARK   70  A    between atoms: _212  and  _213
REMARK   71  A    between atoms: _216  and  _218
REMARK   72  A    between atoms: _218  and  _219
REMARK   73  A    between atoms: _218  and  _221
REMARK   74  A    between atoms: _224  and  _226
REMARK   75  A    between atoms: _226  and  _227
REMARK   76  A    between atoms: _226  and  _229
REMARK   77  A    between atoms: _229  and  _230
REMARK   78  A    between atoms: _233  and  _235
REMARK   79  A    between atoms: _235  and  _236
REMARK   80  A    between atoms: _235  and  _238
REMARK   81  A    between atoms: _238  and  _239
REMARK   82  A    between atoms: _239  and  _240
REMARK   83  A    between atoms: _243  and  _245
REMARK   84  A    between atoms: _245  and  _246
REMARK   85  A    between atoms: _245  and  _248
REMARK   86  A    between atoms: _248  and  _249
REMARK   87  A    between atoms: _249  and  _251
REMARK   88  A    between atoms: _251  and  MN_300
REMARK   89  A    between atoms: _252  and  _254
REMARK   90  A    between atoms: _254  and  _255
REMARK   91  A    between atoms: _254  and  _257
REMARK   92  A    between atoms: _257  and  _258
REMARK   93  A    between atoms: _261  and  _263
REMARK   94  A    between atoms: _263  and  _264
REMARK   95  A    between atoms: _266  and  _268
REMARK   96  A    between atoms: _268  and  _269
REMARK   97  A    between atoms: _268  and  _271
REMARK   98  A    between atoms: _271  and  _272
REMARK   99  A    between atoms: _276  and  _277
REMARK  100  A    between atoms: _282  and  _284
REMARK  101  A    between atoms: _284  and  _285
REMARK  102  A    between atoms: _284  and  _287
REMARK  103  A    between atoms: _290  and  _292
REMARK  104  A    between atoms: _292  and  _293
REMARK  105  A    between atoms: _292  and  _295
REMARK  106  A    between atoms: _295  and  _296
REMARK  107  A    between atoms: _296  and  _297
REMARK                            x       y       z     vdW  Elec       q    Type
REMARK                         _______ _______ _______ _____ _____    ______ ____
ROOT
ATOM      1  CA  GLU A   1       7.539 -20.454  -9.029  0.00  0.00    +0.134 C 
ENDROOT
BRANCH   1   2
ATOM      2  N   GLU A   1       8.697 -20.658  -8.188  0.00  0.00    -0.239 NA
ATOM      3  H   GLU A   1       9.327 -21.452  -8.419  0.00  0.00    +0.142 HD
ENDBRANCH   1   2
BRANCH   1   4
ATOM      4  C   GLU A   1       7.689 -19.258  -9.964  0.00  0.00    +0.224 C 
ATOM      5  O   GLU A   1       6.713 -18.800 -10.561  0.00  0.00    -0.287 OA
ENDBRANCH   1   4
BRANCH   1   6
ATOM      6  CB  GLU A   1       6.277 -20.339  -8.163  0.00  0.00    +0.037 C 
BRANCH   6   7
ATOM      7  CG  GLU A   1       5.898 -21.612  -7.418  0.00  0.00    +0.116 C 
BRANCH   7   8
ATOM      8  CD  GLU A   1       5.220 -22.662  -8.261  0.00  0.00    +0.365 C 
ATOM      9  OE2 GLU A   1       4.660 -23.644  -7.713  0.00  0.00    -0.246 OA
ATOM     10  OE1 GLU A   1       5.277 -22.485  -9.505  0.00  0.00    -0.246 OA
ENDBRANCH   7   8
ENDBRANCH   6   7
ENDBRANCH   1   6
TORSDOF 5
REMARK  Name = ../refined-set-2016/3mjl/3mjl_pocket.pdb
REMARK  107 active torsions:
REMARK  status: ('A' for Active; 'I' for Inactive)
REMARK    1  A    between atoms: _1  and  _3
REMARK    2  A    between atoms: _3  and  _4
REMARK    3  A    between atoms: _6  and  _8
REMARK    4  A    between atoms: _8  and  _9
REMARK    5  A    between atoms: _8  and  _11
REMARK    6  A    between atoms: _11  and  _12
REMARK    7  A    between atoms: _12  and  _13
REMARK    8  A    between atoms: _18  and  _20
REMARK    9  A    between atoms: _20  and  _21
REMARK   10  A    between atoms: _20  and  _23
REMARK   11  A    between atoms: _23  and  _24
REMARK   12  A    between atoms: _24  and  _25
REMARK   13  A    between atoms: _25  and  _26
REMARK   14  A    between atoms: _35  and  _37
REMARK   15  A    between atoms: _37  and  _38
REMARK   16  A    between atoms: _37  and  _40
REMARK   17  A    between atoms: _40  and  _41
REMARK   18  A    between atoms: _42  and  MN_301
REMARK   19  A    between atoms: _46  and  _48
REMARK   20  A    between atoms: _48  and  _49
REMARK   21  A    between atoms: _48  and  _51
REMARK   22  A    between atoms: _51  and  _52
REMARK   23  A    between atoms: _62  and  _64
REMARK   24  A    between atoms: _90  and  _93
REMARK   25  A    between atoms: _93  and  _94
REMARK   26  A    between atoms: _99  and  _100
REMARK   27  A    between atoms: _106  and  _108
REMARK   28  A    between atoms: _108  and  _109
REMARK   29  A    between atoms: _108  and  _111
REMARK   30  A    between atoms: _111  and  _112
REMARK   31  A    between atoms: _115  and  _117
REMARK   32  A    between atoms: _117  and  _118
REMARK   33  A    between atoms: _117  and  _120
REMARK   34  A    between atoms: _120  and  _121
REMARK   35  A    between atoms: _126  and  _128
REMARK   36  A    between atoms: _128  and  _129
REMARK   37  A    between atoms: _128  and  _131
REMARK   38  A    between atoms: _131  and  _132
REMARK   39  A    between atoms: _135  and  _137
REMARK   40  A    between atoms: _137  and  _138
REMARK   41  A    between atoms: _137  and  _140
REMARK   42  A    between atoms: _140  and  _141
REMARK   43  A    between atoms: _144  and  _146
REMARK   44  A    between atoms: _146  and  _147
REMARK   45  A    between atoms: _146  and  _149
REMARK   46  A    between atoms: _149  and  _150
REMARK   47  A    between atoms: _152  and  _154
REMARK   48  A    between atoms: _154  and  _155
REMARK   49  A    between atoms: _154  and  _157
REMARK   50  A    between atoms: _157  and  _158
REMARK   51  A    between atoms: _163  and  _165
REMARK   52  A    between atoms: _165  and  _166
REMARK   53  A    between atoms: _165  and  _168
REMARK   54  A    between atoms: _168  and  _169
REMARK   55  A    between atoms: _172  and  _174
REMARK   56  A    between atoms: _174  and  _175
REMARK   57  A    between atoms: _174  and  _177
REMARK   58  A    between atoms: _177  and  _178
REMARK   59  A    between atoms: _183  and  _185
REMARK   60  A    between atoms: _185  and  _186
REMARK   61  A    between atoms: _188  and  _190
REMARK   62  A    between atoms: _190  and  _191
REMARK   63  A    between atoms: _190  and  _193
REMARK   64  A    between atoms: _193  and  _194
REMARK   65  A    between atoms: _194  and  _195
REMARK   66  A    between atoms: _201  and  _202
REMARK   67  A    between atoms: _207  and  _209
REMARK   68  A    between atoms: _209  and  _210
REMARK   69  A    between atoms: _209  and  _212
REMARK   70  A    between atoms: _212  and  _213
REMARK   71  A    between atoms: _216  and  _218
REMARK   72  A    between atoms: _218  and  _219
REMARK   73  A    between atoms: _218  and  _221
REMARK   74  A    between atoms: _224  and  _226
REMARK   75  A    between atoms: _226  and  _227
REMARK   76  A    between atoms: _226  and  _229
REMARK   77  A    between atoms: _229  and  _230
REMARK   78  A    between atoms: _233  and  _235
REMARK   79  A    between atoms: _235  and  _236
REMARK   80  A    between atoms: _235  and  _238
REMARK   81  A    between atoms: _238  and  _239
REMARK   82  A    between atoms: _239  and  _240
REMARK   83  A    between atoms: _243  and  _245
REMARK   84  A    between atoms: _245  and  _246
REMARK   85  A    between atoms: _245  and  _248
REMARK   86  A    between atoms: _248  and  _249
REMARK   87  A    between atoms: _249  and  _251
REMARK   88  A    between atoms: _251  and  MN_300
REMARK   89  A    between atoms: _252  and  _254
REMARK   90  A    between atoms: _254  and  _255
REMARK   91  A    between atoms: _254  and  _257
REMARK   92  A    between atoms: _257  and  _258
REMARK   93  A    between atoms: _261  and  _263
REMARK   94  A    between atoms: _263  and  _264
REMARK   95  A    between atoms: _266  and  _268
REMARK   96  A    between atoms: _268  and  _269
REMARK   97  A    between atoms: _268  and  _271
REMARK   98  A    between atoms: _271  and  _272
REMARK   99  A    between atoms: _276  and  _277
REMARK  100  A    between atoms: _282  and  _284
REMARK  101  A    between atoms: _284  and  _285
REMARK  102  A    between atoms: _284  and  _287
REMARK  103  A    between atoms: _290  and  _292
REMARK  104  A    between atoms: _292  and  _293
REMARK  105  A    between atoms: _292  and  _295
REMARK  106  A    between atoms: _295  and  _296
REMARK  107  A    between atoms: _296  and  _297
REMARK                            x       y       z     vdW  Elec       q    Type
REMARK                         _______ _______ _______ _____ _____    ______ ____
ROOT
ATOM      1  O   HOH     1      -3.818 -23.056  -1.050  0.00  0.00    +0.000 OA
ENDROOT
TORSDOF 0
REMARK  Name = ../refined-set-2016/3mjl/3mjl_pocket.pdb
REMARK  107 active torsions:
REMARK  status: ('A' for Active; 'I' for Inactive)
REMARK    1  A    between atoms: _1  and  _3
REMARK    2  A    between atoms: _3  and  _4
REMARK    3  A    between atoms: _6  and  _8
REMARK    4  A    between atoms: _8  and  _9
REMARK    5  A    between atoms: _8  and  _11
REMARK    6  A    between atoms: _11  and  _12
REMARK    7  A    between atoms: _12  and  _13
REMARK    8  A    between atoms: _18  and  _20
REMARK    9  A    between atoms: _20  and  _21
REMARK   10  A    between atoms: _20  and  _23
REMARK   11  A    between atoms: _23  and  _24
REMARK   12  A    between atoms: _24  and  _25
REMARK   13  A    between atoms: _25  and  _26
REMARK   14  A    between atoms: _35  and  _37
REMARK   15  A    between atoms: _37  and  _38
REMARK   16  A    between atoms: _37  and  _40
REMARK   17  A    between atoms: _40  and  _41
REMARK   18  A    between atoms: _42  and  MN_301
REMARK   19  A    between atoms: _46  and  _48
REMARK   20  A    between atoms: _48  and  _49
REMARK   21  A    between atoms: _48  and  _51
REMARK   22  A    between atoms: _51  and  _52
REMARK   23  A    between atoms: _62  and  _64
REMARK   24  A    between atoms: _90  and  _93
REMARK   25  A    between atoms: _93  and  _94
REMARK   26  A    between atoms: _99  and  _100
REMARK   27  A    between atoms: _106  and  _108
REMARK   28  A    between atoms: _108  and  _109
REMARK   29  A    between atoms: _108  and  _111
REMARK   30  A    between atoms: _111  and  _112
REMARK   31  A    between atoms: _115  and  _117
REMARK   32  A    between atoms: _117  and  _118
REMARK   33  A    between atoms: _117  and  _120
REMARK   34  A    between atoms: _120  and  _121
REMARK   35  A    between atoms: _126  and  _128
REMARK   36  A    between atoms: _128  and  _129
REMARK   37  A    between atoms: _128  and  _131
REMARK   38  A    between atoms: _131  and  _132
REMARK   39  A    between atoms: _135  and  _137
REMARK   40  A    between atoms: _137  and  _138
REMARK   41  A    between atoms: _137  and  _140
REMARK   42  A    between atoms: _140  and  _141
REMARK   43  A    between atoms: _144  and  _146
REMARK   44  A    between atoms: _146  and  _147
REMARK   45  A    between atoms: _146  and  _149
REMARK   46  A    between atoms: _149  and  _150
REMARK   47  A    between atoms: _152  and  _154
REMARK   48  A    between atoms: _154  and  _155
REMARK   49  A    between atoms: _154  and  _157
REMARK   50  A    between atoms: _157  and  _158
REMARK   51  A    between atoms: _163  and  _165
REMARK   52  A    between atoms: _165  and  _166
REMARK   53  A    between atoms: _165  and  _168
REMARK   54  A    between atoms: _168  and  _169
REMARK   55  A    between atoms: _172  and  _174
REMARK   56  A    between atoms: _174  and  _175
REMARK   57  A    between atoms: _174  and  _177
REMARK   58  A    between atoms: _177  and  _178
REMARK   59  A    between atoms: _183  and  _185
REMARK   60  A    between atoms: _185  and  _186
REMARK   61  A    between atoms: _188  and  _190
REMARK   62  A    between atoms: _190  and  _191
REMARK   63  A    between atoms: _190  and  _193
REMARK   64  A    between atoms: _193  and  _194
REMARK   65  A    between atoms: _194  and  _195
REMARK   66  A    between atoms: _201  and  _202
REMARK   67  A    between atoms: _207  and  _209
REMARK   68  A    between atoms: _209  and  _210
REMARK   69  A    between atoms: _209  and  _212
REMARK   70  A    between atoms: _212  and  _213
REMARK   71  A    between atoms: _216  and  _218
REMARK   72  A    between atoms: _218  and  _219
REMARK   73  A    between atoms: _218  and  _221
REMARK   74  A    between atoms: _224  and  _226
REMARK   75  A    between atoms: _226  and  _227
REMARK   76  A    between atoms: _226  and  _229
REMARK   77  A    between atoms: _229  and  _230
REMARK   78  A    between atoms: _233  and  _235
REMARK   79  A    between atoms: _235  and  _236
REMARK   80  A    between atoms: _235  and  _238
REMARK   81  A    between atoms: _238  and  _239
REMARK   82  A    between atoms: _239  and  _240
REMARK   83  A    between atoms: _243  and  _245
REMARK   84  A    between atoms: _245  and  _246
REMARK   85  A    between atoms: _245  and  _248
REMARK   86  A    between atoms: _248  and  _249
REMARK   87  A    between atoms: _249  and  _251
REMARK   88  A    between atoms: _251  and  MN_300
REMARK   89  A    between atoms: _252  and  _254
REMARK   90  A    between atoms: _254  and  _255
REMARK   91  A    between atoms: _254  and  _257
REMARK   92  A    between atoms: _257  and  _258
REMARK   93  A    between atoms: _261  and  _263
REMARK   94  A    between atoms: _263  and  _264
REMARK   95  A    between atoms: _266  and  _268
REMARK   96  A    between atoms: _268  and  _269
REMARK   97  A    between atoms: _268  and  _271
REMARK   98  A    between atoms: _271  and  _272
REMARK   99  A    between atoms: _276  and  _277
REMARK  100  A    between atoms: _282  and  _284
REMARK  101  A    between atoms: _284  and  _285
REMARK  102  A    between atoms: _284  and  _287
REMARK  103  A    between atoms: _290  and  _292
REMARK  104  A    between atoms: _292  and  _293
REMARK  105  A    between atoms: _292  and  _295
REMARK  106  A    between atoms: _295  and  _296
REMARK  107  A    between atoms: _296  and  _297
REMARK                            x       y       z     vdW  Elec       q    Type
REMARK                         _______ _______ _______ _____ _____    ______ ____
ROOT
ATOM      1  O   HOH     1      -3.252 -29.329  -4.836  0.00  0.00    +0.000 OA
ENDROOT
TORSDOF 0
REMARK  Name = ../refined-set-2016/3mjl/3mjl_pocket.pdb
REMARK  107 active torsions:
REMARK  status: ('A' for Active; 'I' for Inactive)
REMARK    1  A    between atoms: _1  and  _3
REMARK    2  A    between atoms: _3  and  _4
REMARK    3  A    between atoms: _6  and  _8
REMARK    4  A    between atoms: _8  and  _9
REMARK    5  A    between atoms: _8  and  _11
REMARK    6  A    between atoms: _11  and  _12
REMARK    7  A    between atoms: _12  and  _13
REMARK    8  A    between atoms: _18  and  _20
REMARK    9  A    between atoms: _20  and  _21
REMARK   10  A    between atoms: _20  and  _23
REMARK   11  A    between atoms: _23  and  _24
REMARK   12  A    between atoms: _24  and  _25
REMARK   13  A    between atoms: _25  and  _26
REMARK   14  A    between atoms: _35  and  _37
REMARK   15  A    between atoms: _37  and  _38
REMARK   16  A    between atoms: _37  and  _40
REMARK   17  A    between atoms: _40  and  _41
REMARK   18  A    between atoms: _42  and  MN_301
REMARK   19  A    between atoms: _46  and  _48
REMARK   20  A    between atoms: _48  and  _49
REMARK   21  A    between atoms: _48  and  _51
REMARK   22  A    between atoms: _51  and  _52
REMARK   23  A    between atoms: _62  and  _64
REMARK   24  A    between atoms: _90  and  _93
REMARK   25  A    between atoms: _93  and  _94
REMARK   26  A    between atoms: _99  and  _100
REMARK   27  A    between atoms: _106  and  _108
REMARK   28  A    between atoms: _108  and  _109
REMARK   29  A    between atoms: _108  and  _111
REMARK   30  A    between atoms: _111  and  _112
REMARK   31  A    between atoms: _115  and  _117
REMARK   32  A    between atoms: _117  and  _118
REMARK   33  A    between atoms: _117  and  _120
REMARK   34  A    between atoms: _120  and  _121
REMARK   35  A    between atoms: _126  and  _128
REMARK   36  A    between atoms: _128  and  _129
REMARK   37  A    between atoms: _128  and  _131
REMARK   38  A    between atoms: _131  and  _132
REMARK   39  A    between atoms: _135  and  _137
REMARK   40  A    between atoms: _137  and  _138
REMARK   41  A    between atoms: _137  and  _140
REMARK   42  A    between atoms: _140  and  _141
REMARK   43  A    between atoms: _144  and  _146
REMARK   44  A    between atoms: _146  and  _147
REMARK   45  A    between atoms: _146  and  _149
REMARK   46  A    between atoms: _149  and  _150
REMARK   47  A    between atoms: _152  and  _154
REMARK   48  A    between atoms: _154  and  _155
REMARK   49  A    between atoms: _154  and  _157
REMARK   50  A    between atoms: _157  and  _158
REMARK   51  A    between atoms: _163  and  _165
REMARK   52  A    between atoms: _165  and  _166
REMARK   53  A    between atoms: _165  and  _168
REMARK   54  A    between atoms: _168  and  _169
REMARK   55  A    between atoms: _172  and  _174
REMARK   56  A    between atoms: _174  and  _175
REMARK   57  A    between atoms: _174  and  _177
REMARK   58  A    between atoms: _177  and  _178
REMARK   59  A    between atoms: _183  and  _185
REMARK   60  A    between atoms: _185  and  _186
REMARK   61  A    between atoms: _188  and  _190
REMARK   62  A    between atoms: _190  and  _191
REMARK   63  A    between atoms: _190  and  _193
REMARK   64  A    between atoms: _193  and  _194
REMARK   65  A    between atoms: _194  and  _195
REMARK   66  A    between atoms: _201  and  _202
REMARK   67  A    between atoms: _207  and  _209
REMARK   68  A    between atoms: _209  and  _210
REMARK   69  A    between atoms: _209  and  _212
REMARK   70  A    between atoms: _212  and  _213
REMARK   71  A    between atoms: _216  and  _218
REMARK   72  A    between atoms: _218  and  _219
REMARK   73  A    between atoms: _218  and  _221
REMARK   74  A    between atoms: _224  and  _226
REMARK   75  A    between atoms: _226  and  _227
REMARK   76  A    between atoms: _226  and  _229
REMARK   77  A    between atoms: _229  and  _230
REMARK   78  A    between atoms: _233  and  _235
REMARK   79  A    between atoms: _235  and  _236
REMARK   80  A    between atoms: _235  and  _238
REMARK   81  A    between atoms: _238  and  _239
REMARK   82  A    between atoms: _239  and  _240
REMARK   83  A    between atoms: _243  and  _245
REMARK   84  A    between atoms: _245  and  _246
REMARK   85  A    between atoms: _245  and  _248
REMARK   86  A    between atoms: _248  and  _249
REMARK   87  A    between atoms: _249  and  _251
REMARK   88  A    between atoms: _251  and  MN_300
REMARK   89  A    between atoms: _252  and  _254
REMARK   90  A    between atoms: _254  and  _255
REMARK   91  A    between atoms: _254  and  _257
REMARK   92  A    between atoms: _257  and  _258
REMARK   93  A    between atoms: _261  and  _263
REMARK   94  A    between atoms: _263  and  _264
REMARK   95  A    between atoms: _266  and  _268
REMARK   96  A    between atoms: _268  and  _269
REMARK   97  A    between atoms: _268  and  _271
REMARK   98  A    between atoms: _271  and  _272
REMARK   99  A    between atoms: _276  and  _277
REMARK  100  A    between atoms: _282  and  _284
REMARK  101  A    between atoms: _284  and  _285
REMARK  102  A    between atoms: _284  and  _287
REMARK  103  A    between atoms: _290  and  _292
REMARK  104  A    between atoms: _292  and  _293
REMARK  105  A    between atoms: _292  and  _295
REMARK  106  A    between atoms: _295  and  _296
REMARK  107  A    between atoms: _296  and  _297
REMARK                            x       y       z     vdW  Elec       q    Type
REMARK                         _______ _______ _______ _____ _____    ______ ____
ROOT
ATOM      1  O   HOH     1       2.312 -19.401  -8.977  0.00  0.00    +0.000 OA
ENDROOT
TORSDOF 0
REMARK  Name = ../refined-set-2016/3mjl/3mjl_pocket.pdb
REMARK  107 active torsions:
REMARK  status: ('A' for Active; 'I' for Inactive)
REMARK    1  A    between atoms: _1  and  _3
REMARK    2  A    between atoms: _3  and  _4
REMARK    3  A    between atoms: _6  and  _8
REMARK    4  A    between atoms: _8  and  _9
REMARK    5  A    between atoms: _8  and  _11
REMARK    6  A    between atoms: _11  and  _12
REMARK    7  A    between atoms: _12  and  _13
REMARK    8  A    between atoms: _18  and  _20
REMARK    9  A    between atoms: _20  and  _21
REMARK   10  A    between atoms: _20  and  _23
REMARK   11  A    between atoms: _23  and  _24
REMARK   12  A    between atoms: _24  and  _25
REMARK   13  A    between atoms: _25  and  _26
REMARK   14  A    between atoms: _35  and  _37
REMARK   15  A    between atoms: _37  and  _38
REMARK   16  A    between atoms: _37  and  _40
REMARK   17  A    between atoms: _40  and  _41
REMARK   18  A    between atoms: _42  and  MN_301
REMARK   19  A    between atoms: _46  and  _48
REMARK   20  A    between atoms: _48  and  _49
REMARK   21  A    between atoms: _48  and  _51
REMARK   22  A    between atoms: _51  and  _52
REMARK   23  A    between atoms: _62  and  _64
REMARK   24  A    between atoms: _90  and  _93
REMARK   25  A    between atoms: _93  and  _94
REMARK   26  A    between atoms: _99  and  _100
REMARK   27  A    between atoms: _106  and  _108
REMARK   28  A    between atoms: _108  and  _109
REMARK   29  A    between atoms: _108  and  _111
REMARK   30  A    between atoms: _111  and  _112
REMARK   31  A    between atoms: _115  and  _117
REMARK   32  A    between atoms: _117  and  _118
REMARK   33  A    between atoms: _117  and  _120
REMARK   34  A    between atoms: _120  and  _121
REMARK   35  A    between atoms: _126  and  _128
REMARK   36  A    between atoms: _128  and  _129
REMARK   37  A    between atoms: _128  and  _131
REMARK   38  A    between atoms: _131  and  _132
REMARK   39  A    between atoms: _135  and  _137
REMARK   40  A    between atoms: _137  and  _138
REMARK   41  A    between atoms: _137  and  _140
REMARK   42  A    between atoms: _140  and  _141
REMARK   43  A    between atoms: _144  and  _146
REMARK   44  A    between atoms: _146  and  _147
REMARK   45  A    between atoms: _146  and  _149
REMARK   46  A    between atoms: _149  and  _150
REMARK   47  A    between atoms: _152  and  _154
REMARK   48  A    between atoms: _154  and  _155
REMARK   49  A    between atoms: _154  and  _157
REMARK   50  A    between atoms: _157  and  _158
REMARK   51  A    between atoms: _163  and  _165
REMARK   52  A    between atoms: _165  and  _166
REMARK   53  A    between atoms: _165  and  _168
REMARK   54  A    between atoms: _168  and  _169
REMARK   55  A    between atoms: _172  and  _174
REMARK   56  A    between atoms: _174  and  _175
REMARK   57  A    between atoms: _174  and  _177
REMARK   58  A    between atoms: _177  and  _178
REMARK   59  A    between atoms: _183  and  _185
REMARK   60  A    between atoms: _185  and  _186
REMARK   61  A    between atoms: _188  and  _190
REMARK   62  A    between atoms: _190  and  _191
REMARK   63  A    between atoms: _190  and  _193
REMARK   64  A    between atoms: _193  and  _194
REMARK   65  A    between atoms: _194  and  _195
REMARK   66  A    between atoms: _201  and  _202
REMARK   67  A    between atoms: _207  and  _209
REMARK   68  A    between atoms: _209  and  _210
REMARK   69  A    between atoms: _209  and  _212
REMARK   70  A    between atoms: _212  and  _213
REMARK   71  A    between atoms: _216  and  _218
REMARK   72  A    between atoms: _218  and  _219
REMARK   73  A    between atoms: _218  and  _221
REMARK   74  A    between atoms: _224  and  _226
REMARK   75  A    between atoms: _226  and  _227
REMARK   76  A    between atoms: _226  and  _229
REMARK   77  A    between atoms: _229  and  _230
REMARK   78  A    between atoms: _233  and  _235
REMARK   79  A    between atoms: _235  and  _236
REMARK   80  A    between atoms: _235  and  _238
REMARK   81  A    between atoms: _238  and  _239
REMARK   82  A    between atoms: _239  and  _240
REMARK   83  A    between atoms: _243  and  _245
REMARK   84  A    between atoms: _245  and  _246
REMARK   85  A    between atoms: _245  and  _248
REMARK   86  A    between atoms: _248  and  _249
REMARK   87  A    between atoms: _249  and  _251
REMARK   88  A    between atoms: _251  and  MN_300
REMARK   89  A    between atoms: _252  and  _254
REMARK   90  A    between atoms: _254  and  _255
REMARK   91  A    between atoms: _254  and  _257
REMARK   92  A    between atoms: _257  and  _258
REMARK   93  A    between atoms: _261  and  _263
REMARK   94  A    between atoms: _263  and  _264
REMARK   95  A    between atoms: _266  and  _268
REMARK   96  A    between atoms: _268  and  _269
REMARK   97  A    between atoms: _268  and  _271
REMARK   98  A    between atoms: _271  and  _272
REMARK   99  A    between atoms: _276  and  _277
REMARK  100  A    between atoms: _282  and  _284
REMARK  101  A    between atoms: _284  and  _285
REMARK  102  A    between atoms: _284  and  _287
REMARK  103  A    between atoms: _290  and  _292
REMARK  104  A    between atoms: _292  and  _293
REMARK  105  A    between atoms: _292  and  _295
REMARK  106  A    between atoms: _295  and  _296
REMARK  107  A    between atoms: _296  and  _297
REMARK                            x       y       z     vdW  Elec       q    Type
REMARK                         _______ _______ _______ _____ _____    ______ ____
ROOT
ATOM      1  O   HOH     1       1.587 -21.923  -6.930  0.00  0.00    +0.000 OA
ENDROOT
TORSDOF 0
REMARK  Name = ../refined-set-2016/3mjl/3mjl_pocket.pdb
REMARK  107 active torsions:
REMARK  status: ('A' for Active; 'I' for Inactive)
REMARK    1  A    between atoms: _1  and  _3
REMARK    2  A    between atoms: _3  and  _4
REMARK    3  A    between atoms: _6  and  _8
REMARK    4  A    between atoms: _8  and  _9
REMARK    5  A    between atoms: _8  and  _11
REMARK    6  A    between atoms: _11  and  _12
REMARK    7  A    between atoms: _12  and  _13
REMARK    8  A    between atoms: _18  and  _20
REMARK    9  A    between atoms: _20  and  _21
REMARK   10  A    between atoms: _20  and  _23
REMARK   11  A    between atoms: _23  and  _24
REMARK   12  A    between atoms: _24  and  _25
REMARK   13  A    between atoms: _25  and  _26
REMARK   14  A    between atoms: _35  and  _37
REMARK   15  A    between atoms: _37  and  _38
REMARK   16  A    between atoms: _37  and  _40
REMARK   17  A    between atoms: _40  and  _41
REMARK   18  A    between atoms: _42  and  MN_301
REMARK   19  A    between atoms: _46  and  _48
REMARK   20  A    between atoms: _48  and  _49
REMARK   21  A    between atoms: _48  and  _51
REMARK   22  A    between atoms: _51  and  _52
REMARK   23  A    between atoms: _62  and  _64
REMARK   24  A    between atoms: _90  and  _93
REMARK   25  A    between atoms: _93  and  _94
REMARK   26  A    between atoms: _99  and  _100
REMARK   27  A    between atoms: _106  and  _108
REMARK   28  A    between atoms: _108  and  _109
REMARK   29  A    between atoms: _108  and  _111
REMARK   30  A    between atoms: _111  and  _112
REMARK   31  A    between atoms: _115  and  _117
REMARK   32  A    between atoms: _117  and  _118
REMARK   33  A    between atoms: _117  and  _120
REMARK   34  A    between atoms: _120  and  _121
REMARK   35  A    between atoms: _126  and  _128
REMARK   36  A    between atoms: _128  and  _129
REMARK   37  A    between atoms: _128  and  _131
REMARK   38  A    between atoms: _131  and  _132
REMARK   39  A    between atoms: _135  and  _137
REMARK   40  A    between atoms: _137  and  _138
REMARK   41  A    between atoms: _137  and  _140
REMARK   42  A    between atoms: _140  and  _141
REMARK   43  A    between atoms: _144  and  _146
REMARK   44  A    between atoms: _146  and  _147
REMARK   45  A    between atoms: _146  and  _149
REMARK   46  A    between atoms: _149  and  _150
REMARK   47  A    between atoms: _152  and  _154
REMARK   48  A    between atoms: _154  and  _155
REMARK   49  A    between atoms: _154  and  _157
REMARK   50  A    between atoms: _157  and  _158
REMARK   51  A    between atoms: _163  and  _165
REMARK   52  A    between atoms: _165  and  _166
REMARK   53  A    between atoms: _165  and  _168
REMARK   54  A    between atoms: _168  and  _169
REMARK   55  A    between atoms: _172  and  _174
REMARK   56  A    between atoms: _174  and  _175
REMARK   57  A    between atoms: _174  and  _177
REMARK   58  A    between atoms: _177  and  _178
REMARK   59  A    between atoms: _183  and  _185
REMARK   60  A    between atoms: _185  and  _186
REMARK   61  A    between atoms: _188  and  _190
REMARK   62  A    between atoms: _190  and  _191
REMARK   63  A    between atoms: _190  and  _193
REMARK   64  A    between atoms: _193  and  _194
REMARK   65  A    between atoms: _194  and  _195
REMARK   66  A    between atoms: _201  and  _202
REMARK   67  A    between atoms: _207  and  _209
REMARK   68  A    between atoms: _209  and  _210
REMARK   69  A    between atoms: _209  and  _212
REMARK   70  A    between atoms: _212  and  _213
REMARK   71  A    between atoms: _216  and  _218
REMARK   72  A    between atoms: _218  and  _219
REMARK   73  A    between atoms: _218  and  _221
REMARK   74  A    between atoms: _224  and  _226
REMARK   75  A    between atoms: _226  and  _227
REMARK   76  A    between atoms: _226  and  _229
REMARK   77  A    between atoms: _229  and  _230
REMARK   78  A    between atoms: _233  and  _235
REMARK   79  A    between atoms: _235  and  _236
REMARK   80  A    between atoms: _235  and  _238
REMARK   81  A    between atoms: _238  and  _239
REMARK   82  A    between atoms: _239  and  _240
REMARK   83  A    between atoms: _243  and  _245
REMARK   84  A    between atoms: _245  and  _246
REMARK   85  A    between atoms: _245  and  _248
REMARK   86  A    between atoms: _248  and  _249
REMARK   87  A    between atoms: _249  and  _251
REMARK   88  A    between atoms: _251  and  MN_300
REMARK   89  A    between atoms: _252  and  _254
REMARK   90  A    between atoms: _254  and  _255
REMARK   91  A    between atoms: _254  and  _257
REMARK   92  A    between atoms: _257  and  _258
REMARK   93  A    between atoms: _261  and  _263
REMARK   94  A    between atoms: _263  and  _264
REMARK   95  A    between atoms: _266  and  _268
REMARK   96  A    between atoms: _268  and  _269
REMARK   97  A    between atoms: _268  and  _271
REMARK   98  A    between atoms: _271  and  _272
REMARK   99  A    between atoms: _276  and  _277
REMARK  100  A    between atoms: _282  and  _284
REMARK  101  A    between atoms: _284  and  _285
REMARK  102  A    between atoms: _284  and  _287
REMARK  103  A    between atoms: _290  and  _292
REMARK  104  A    between atoms: _292  and  _293
REMARK  105  A    between atoms: _292  and  _295
REMARK  106  A    between atoms: _295  and  _296
REMARK  107  A    between atoms: _296  and  _297
REMARK                            x       y       z     vdW  Elec       q    Type
REMARK                         _______ _______ _______ _____ _____    ______ ____
ROOT
ATOM      1  O   HOH     1      -4.161 -18.183  -9.552  0.00  0.00    +0.000 OA
ENDROOT
TORSDOF 0
REMARK  Name = ../refined-set-2016/3mjl/3mjl_pocket.pdb
REMARK  107 active torsions:
REMARK  status: ('A' for Active; 'I' for Inactive)
REMARK    1  A    between atoms: _1  and  _3
REMARK    2  A    between atoms: _3  and  _4
REMARK    3  A    between atoms: _6  and  _8
REMARK    4  A    between atoms: _8  and  _9
REMARK    5  A    between atoms: _8  and  _11
REMARK    6  A    between atoms: _11  and  _12
REMARK    7  A    between atoms: _12  and  _13
REMARK    8  A    between atoms: _18  and  _20
REMARK    9  A    between atoms: _20  and  _21
REMARK   10  A    between atoms: _20  and  _23
REMARK   11  A    between atoms: _23  and  _24
REMARK   12  A    between atoms: _24  and  _25
REMARK   13  A    between atoms: _25  and  _26
REMARK   14  A    between atoms: _35  and  _37
REMARK   15  A    between atoms: _37  and  _38
REMARK   16  A    between atoms: _37  and  _40
REMARK   17  A    between atoms: _40  and  _41
REMARK   18  A    between atoms: _42  and  MN_301
REMARK   19  A    between atoms: _46  and  _48
REMARK   20  A    between atoms: _48  and  _49
REMARK   21  A    between atoms: _48  and  _51
REMARK   22  A    between atoms: _51  and  _52
REMARK   23  A    between atoms: _62  and  _64
REMARK   24  A    between atoms: _90  and  _93
REMARK   25  A    between atoms: _93  and  _94
REMARK   26  A    between atoms: _99  and  _100
REMARK   27  A    between atoms: _106  and  _108
REMARK   28  A    between atoms: _108  and  _109
REMARK   29  A    between atoms: _108  and  _111
REMARK   30  A    between atoms: _111  and  _112
REMARK   31  A    between atoms: _115  and  _117
REMARK   32  A    between atoms: _117  and  _118
REMARK   33  A    between atoms: _117  and  _120
REMARK   34  A    between atoms: _120  and  _121
REMARK   35  A    between atoms: _126  and  _128
REMARK   36  A    between atoms: _128  and  _129
REMARK   37  A    between atoms: _128  and  _131
REMARK   38  A    between atoms: _131  and  _132
REMARK   39  A    between atoms: _135  and  _137
REMARK   40  A    between atoms: _137  and  _138
REMARK   41  A    between atoms: _137  and  _140
REMARK   42  A    between atoms: _140  and  _141
REMARK   43  A    between atoms: _144  and  _146
REMARK   44  A    between atoms: _146  and  _147
REMARK   45  A    between atoms: _146  and  _149
REMARK   46  A    between atoms: _149  and  _150
REMARK   47  A    between atoms: _152  and  _154
REMARK   48  A    between atoms: _154  and  _155
REMARK   49  A    between atoms: _154  and  _157
REMARK   50  A    between atoms: _157  and  _158
REMARK   51  A    between atoms: _163  and  _165
REMARK   52  A    between atoms: _165  and  _166
REMARK   53  A    between atoms: _165  and  _168
REMARK   54  A    between atoms: _168  and  _169
REMARK   55  A    between atoms: _172  and  _174
REMARK   56  A    between atoms: _174  and  _175
REMARK   57  A    between atoms: _174  and  _177
REMARK   58  A    between atoms: _177  and  _178
REMARK   59  A    between atoms: _183  and  _185
REMARK   60  A    between atoms: _185  and  _186
REMARK   61  A    between atoms: _188  and  _190
REMARK   62  A    between atoms: _190  and  _191
REMARK   63  A    between atoms: _190  and  _193
REMARK   64  A    between atoms: _193  and  _194
REMARK   65  A    between atoms: _194  and  _195
REMARK   66  A    between atoms: _201  and  _202
REMARK   67  A    between atoms: _207  and  _209
REMARK   68  A    between atoms: _209  and  _210
REMARK   69  A    between atoms: _209  and  _212
REMARK   70  A    between atoms: _212  and  _213
REMARK   71  A    between atoms: _216  and  _218
REMARK   72  A    between atoms: _218  and  _219
REMARK   73  A    between atoms: _218  and  _221
REMARK   74  A    between atoms: _224  and  _226
REMARK   75  A    between atoms: _226  and  _227
REMARK   76  A    between atoms: _226  and  _229
REMARK   77  A    between atoms: _229  and  _230
REMARK   78  A    between atoms: _233  and  _235
REMARK   79  A    between atoms: _235  and  _236
REMARK   80  A    between atoms: _235  and  _238
REMARK   81  A    between atoms: _238  and  _239
REMARK   82  A    between atoms: _239  and  _240
REMARK   83  A    between atoms: _243  and  _245
REMARK   84  A    between atoms: _245  and  _246
REMARK   85  A    between atoms: _245  and  _248
REMARK   86  A    between atoms: _248  and  _249
REMARK   87  A    between atoms: _249  and  _251
REMARK   88  A    between atoms: _251  and  MN_300
REMARK   89  A    between atoms: _252  and  _254
REMARK   90  A    between atoms: _254  and  _255
REMARK   91  A    between atoms: _254  and  _257
REMARK   92  A    between atoms: _257  and  _258
REMARK   93  A    between atoms: _261  and  _263
REMARK   94  A    between atoms: _263  and  _264
REMARK   95  A    between atoms: _266  and  _268
REMARK   96  A    between atoms: _268  and  _269
REMARK   97  A    between atoms: _268  and  _271
REMARK   98  A    between atoms: _271  and  _272
REMARK   99  A    between atoms: _276  and  _277
REMARK  100  A    between atoms: _282  and  _284
REMARK  101  A    between atoms: _284  and  _285
REMARK  102  A    between atoms: _284  and  _287
REMARK  103  A    between atoms: _290  and  _292
REMARK  104  A    between atoms: _292  and  _293
REMARK  105  A    between atoms: _292  and  _295
REMARK  106  A    between atoms: _295  and  _296
REMARK  107  A    between atoms: _296  and  _297
REMARK                            x       y       z     vdW  Elec       q    Type
REMARK                         _______ _______ _______ _____ _____    ______ ____
ROOT
ATOM      1  O   HOH     1      -4.728 -22.171  -7.811  0.00  0.00    +0.000 OA
ENDROOT
TORSDOF 0
REMARK  Name = ../refined-set-2016/3mjl/3mjl_pocket.pdb
REMARK  107 active torsions:
REMARK  status: ('A' for Active; 'I' for Inactive)
REMARK    1  A    between atoms: _1  and  _3
REMARK    2  A    between atoms: _3  and  _4
REMARK    3  A    between atoms: _6  and  _8
REMARK    4  A    between atoms: _8  and  _9
REMARK    5  A    between atoms: _8  and  _11
REMARK    6  A    between atoms: _11  and  _12
REMARK    7  A    between atoms: _12  and  _13
REMARK    8  A    between atoms: _18  and  _20
REMARK    9  A    between atoms: _20  and  _21
REMARK   10  A    between atoms: _20  and  _23
REMARK   11  A    between atoms: _23  and  _24
REMARK   12  A    between atoms: _24  and  _25
REMARK   13  A    between atoms: _25  and  _26
REMARK   14  A    between atoms: _35  and  _37
REMARK   15  A    between atoms: _37  and  _38
REMARK   16  A    between atoms: _37  and  _40
REMARK   17  A    between atoms: _40  and  _41
REMARK   18  A    between atoms: _42  and  MN_301
REMARK   19  A    between atoms: _46  and  _48
REMARK   20  A    between atoms: _48  and  _49
REMARK   21  A    between atoms: _48  and  _51
REMARK   22  A    between atoms: _51  and  _52
REMARK   23  A    between atoms: _62  and  _64
REMARK   24  A    between atoms: _90  and  _93
REMARK   25  A    between atoms: _93  and  _94
REMARK   26  A    between atoms: _99  and  _100
REMARK   27  A    between atoms: _106  and  _108
REMARK   28  A    between atoms: _108  and  _109
REMARK   29  A    between atoms: _108  and  _111
REMARK   30  A    between atoms: _111  and  _112
REMARK   31  A    between atoms: _115  and  _117
REMARK   32  A    between atoms: _117  and  _118
REMARK   33  A    between atoms: _117  and  _120
REMARK   34  A    between atoms: _120  and  _121
REMARK   35  A    between atoms: _126  and  _128
REMARK   36  A    between atoms: _128  and  _129
REMARK   37  A    between atoms: _128  and  _131
REMARK   38  A    between atoms: _131  and  _132
REMARK   39  A    between atoms: _135  and  _137
REMARK   40  A    between atoms: _137  and  _138
REMARK   41  A    between atoms: _137  and  _140
REMARK   42  A    between atoms: _140  and  _141
REMARK   43  A    between atoms: _144  and  _146
REMARK   44  A    between atoms: _146  and  _147
REMARK   45  A    between atoms: _146  and  _149
REMARK   46  A    between atoms: _149  and  _150
REMARK   47  A    between atoms: _152  and  _154
REMARK   48  A    between atoms: _154  and  _155
REMARK   49  A    between atoms: _154  and  _157
REMARK   50  A    between atoms: _157  and  _158
REMARK   51  A    between atoms: _163  and  _165
REMARK   52  A    between atoms: _165  and  _166
REMARK   53  A    between atoms: _165  and  _168
REMARK   54  A    between atoms: _168  and  _169
REMARK   55  A    between atoms: _172  and  _174
REMARK   56  A    between atoms: _174  and  _175
REMARK   57  A    between atoms: _174  and  _177
REMARK   58  A    between atoms: _177  and  _178
REMARK   59  A    between atoms: _183  and  _185
REMARK   60  A    between atoms: _185  and  _186
REMARK   61  A    between atoms: _188  and  _190
REMARK   62  A    between atoms: _190  and  _191
REMARK   63  A    between atoms: _190  and  _193
REMARK   64  A    between atoms: _193  and  _194
REMARK   65  A    between atoms: _194  and  _195
REMARK   66  A    between atoms: _201  and  _202
REMARK   67  A    between atoms: _207  and  _209
REMARK   68  A    between atoms: _209  and  _210
REMARK   69  A    between atoms: _209  and  _212
REMARK   70  A    between atoms: _212  and  _213
REMARK   71  A    between atoms: _216  and  _218
REMARK   72  A    between atoms: _218  and  _219
REMARK   73  A    between atoms: _218  and  _221
REMARK   74  A    between atoms: _224  and  _226
REMARK   75  A    between atoms: _226  and  _227
REMARK   76  A    between atoms: _226  and  _229
REMARK   77  A    between atoms: _229  and  _230
REMARK   78  A    between atoms: _233  and  _235
REMARK   79  A    between atoms: _235  and  _236
REMARK   80  A    between atoms: _235  and  _238
REMARK   81  A    between atoms: _238  and  _239
REMARK   82  A    between atoms: _239  and  _240
REMARK   83  A    between atoms: _243  and  _245
REMARK   84  A    between atoms: _245  and  _246
REMARK   85  A    between atoms: _245  and  _248
REMARK   86  A    between atoms: _248  and  _249
REMARK   87  A    between atoms: _249  and  _251
REMARK   88  A    between atoms: _251  and  MN_300
REMARK   89  A    between atoms: _252  and  _254
REMARK   90  A    between atoms: _254  and  _255
REMARK   91  A    between atoms: _254  and  _257
REMARK   92  A    between atoms: _257  and  _258
REMARK   93  A    between atoms: _261  and  _263
REMARK   94  A    between atoms: _263  and  _264
REMARK   95  A    between atoms: _266  and  _268
REMARK   96  A    between atoms: _268  and  _269
REMARK   97  A    between atoms: _268  and  _271
REMARK   98  A    between atoms: _271  and  _272
REMARK   99  A    between atoms: _276  and  _277
REMARK  100  A    between atoms: _282  and  _284
REMARK  101  A    between atoms: _284  and  _285
REMARK  102  A    between atoms: _284  and  _287
REMARK  103  A    between atoms: _290  and  _292
REMARK  104  A    between atoms: _292  and  _293
REMARK  105  A    between atoms: _292  and  _295
REMARK  106  A    between atoms: _295  and  _296
REMARK  107  A    between atoms: _296  and  _297
REMARK                            x       y       z     vdW  Elec       q    Type
REMARK                         _______ _______ _______ _____ _____    ______ ____
ROOT
ATOM      1  O   HOH     1     -10.712 -25.916  -5.663  0.00  0.00    +0.000 OA
ENDROOT
TORSDOF 0
REMARK  Name = ../refined-set-2016/3mjl/3mjl_pocket.pdb
REMARK  107 active torsions:
REMARK  status: ('A' for Active; 'I' for Inactive)
REMARK    1  A    between atoms: _1  and  _3
REMARK    2  A    between atoms: _3  and  _4
REMARK    3  A    between atoms: _6  and  _8
REMARK    4  A    between atoms: _8  and  _9
REMARK    5  A    between atoms: _8  and  _11
REMARK    6  A    between atoms: _11  and  _12
REMARK    7  A    between atoms: _12  and  _13
REMARK    8  A    between atoms: _18  and  _20
REMARK    9  A    between atoms: _20  and  _21
REMARK   10  A    between atoms: _20  and  _23
REMARK   11  A    between atoms: _23  and  _24
REMARK   12  A    between atoms: _24  and  _25
REMARK   13  A    between atoms: _25  and  _26
REMARK   14  A    between atoms: _35  and  _37
REMARK   15  A    between atoms: _37  and  _38
REMARK   16  A    between atoms: _37  and  _40
REMARK   17  A    between atoms: _40  and  _41
REMARK   18  A    between atoms: _42  and  MN_301
REMARK   19  A    between atoms: _46  and  _48
REMARK   20  A    between atoms: _48  and  _49
REMARK   21  A    between atoms: _48  and  _51
REMARK   22  A    between atoms: _51  and  _52
REMARK   23  A    between atoms: _62  and  _64
REMARK   24  A    between atoms: _90  and  _93
REMARK   25  A    between atoms: _93  and  _94
REMARK   26  A    between atoms: _99  and  _100
REMARK   27  A    between atoms: _106  and  _108
REMARK   28  A    between atoms: _108  and  _109
REMARK   29  A    between atoms: _108  and  _111
REMARK   30  A    between atoms: _111  and  _112
REMARK   31  A    between atoms: _115  and  _117
REMARK   32  A    between atoms: _117  and  _118
REMARK   33  A    between atoms: _117  and  _120
REMARK   34  A    between atoms: _120  and  _121
REMARK   35  A    between atoms: _126  and  _128
REMARK   36  A    between atoms: _128  and  _129
REMARK   37  A    between atoms: _128  and  _131
REMARK   38  A    between atoms: _131  and  _132
REMARK   39  A    between atoms: _135  and  _137
REMARK   40  A    between atoms: _137  and  _138
REMARK   41  A    between atoms: _137  and  _140
REMARK   42  A    between atoms: _140  and  _141
REMARK   43  A    between atoms: _144  and  _146
REMARK   44  A    between atoms: _146  and  _147
REMARK   45  A    between atoms: _146  and  _149
REMARK   46  A    between atoms: _149  and  _150
REMARK   47  A    between atoms: _152  and  _154
REMARK   48  A    between atoms: _154  and  _155
REMARK   49  A    between atoms: _154  and  _157
REMARK   50  A    between atoms: _157  and  _158
REMARK   51  A    between atoms: _163  and  _165
REMARK   52  A    between atoms: _165  and  _166
REMARK   53  A    between atoms: _165  and  _168
REMARK   54  A    between atoms: _168  and  _169
REMARK   55  A    between atoms: _172  and  _174
REMARK   56  A    between atoms: _174  and  _175
REMARK   57  A    between atoms: _174  and  _177
REMARK   58  A    between atoms: _177  and  _178
REMARK   59  A    between atoms: _183  and  _185
REMARK   60  A    between atoms: _185  and  _186
REMARK   61  A    between atoms: _188  and  _190
REMARK   62  A    between atoms: _190  and  _191
REMARK   63  A    between atoms: _190  and  _193
REMARK   64  A    between atoms: _193  and  _194
REMARK   65  A    between atoms: _194  and  _195
REMARK   66  A    between atoms: _201  and  _202
REMARK   67  A    between atoms: _207  and  _209
REMARK   68  A    between atoms: _209  and  _210
REMARK   69  A    between atoms: _209  and  _212
REMARK   70  A    between atoms: _212  and  _213
REMARK   71  A    between atoms: _216  and  _218
REMARK   72  A    between atoms: _218  and  _219
REMARK   73  A    between atoms: _218  and  _221
REMARK   74  A    between atoms: _224  and  _226
REMARK   75  A    between atoms: _226  and  _227
REMARK   76  A    between atoms: _226  and  _229
REMARK   77  A    between atoms: _229  and  _230
REMARK   78  A    between atoms: _233  and  _235
REMARK   79  A    between atoms: _235  and  _236
REMARK   80  A    between atoms: _235  and  _238
REMARK   81  A    between atoms: _238  and  _239
REMARK   82  A    between atoms: _239  and  _240
REMARK   83  A    between atoms: _243  and  _245
REMARK   84  A    between atoms: _245  and  _246
REMARK   85  A    between atoms: _245  and  _248
REMARK   86  A    between atoms: _248  and  _249
REMARK   87  A    between atoms: _249  and  _251
REMARK   88  A    between atoms: _251  and  MN_300
REMARK   89  A    between atoms: _252  and  _254
REMARK   90  A    between atoms: _254  and  _255
REMARK   91  A    between atoms: _254  and  _257
REMARK   92  A    between atoms: _257  and  _258
REMARK   93  A    between atoms: _261  and  _263
REMARK   94  A    between atoms: _263  and  _264
REMARK   95  A    between atoms: _266  and  _268
REMARK   96  A    between atoms: _268  and  _269
REMARK   97  A    between atoms: _268  and  _271
REMARK   98  A    between atoms: _271  and  _272
REMARK   99  A    between atoms: _276  and  _277
REMARK  100  A    between atoms: _282  and  _284
REMARK  101  A    between atoms: _284  and  _285
REMARK  102  A    between atoms: _284  and  _287
REMARK  103  A    between atoms: _290  and  _292
REMARK  104  A    between atoms: _292  and  _293
REMARK  105  A    between atoms: _292  and  _295
REMARK  106  A    between atoms: _295  and  _296
REMARK  107  A    between atoms: _296  and  _297
REMARK                            x       y       z     vdW  Elec       q    Type
REMARK                         _______ _______ _______ _____ _____    ______ ____
ROOT
ATOM      1  O   HOH     1      -2.645 -26.367  -2.334  0.00  0.00    +0.000 OA
ENDROOT
TORSDOF 0
REMARK  Name = ../refined-set-2016/3mjl/3mjl_pocket.pdb
REMARK  107 active torsions:
REMARK  status: ('A' for Active; 'I' for Inactive)
REMARK    1  A    between atoms: _1  and  _3
REMARK    2  A    between atoms: _3  and  _4
REMARK    3  A    between atoms: _6  and  _8
REMARK    4  A    between atoms: _8  and  _9
REMARK    5  A    between atoms: _8  and  _11
REMARK    6  A    between atoms: _11  and  _12
REMARK    7  A    between atoms: _12  and  _13
REMARK    8  A    between atoms: _18  and  _20
REMARK    9  A    between atoms: _20  and  _21
REMARK   10  A    between atoms: _20  and  _23
REMARK   11  A    between atoms: _23  and  _24
REMARK   12  A    between atoms: _24  and  _25
REMARK   13  A    between atoms: _25  and  _26
REMARK   14  A    between atoms: _35  and  _37
REMARK   15  A    between atoms: _37  and  _38
REMARK   16  A    between atoms: _37  and  _40
REMARK   17  A    between atoms: _40  and  _41
REMARK   18  A    between atoms: _42  and  MN_301
REMARK   19  A    between atoms: _46  and  _48
REMARK   20  A    between atoms: _48  and  _49
REMARK   21  A    between atoms: _48  and  _51
REMARK   22  A    between atoms: _51  and  _52
REMARK   23  A    between atoms: _62  and  _64
REMARK   24  A    between atoms: _90  and  _93
REMARK   25  A    between atoms: _93  and  _94
REMARK   26  A    between atoms: _99  and  _100
REMARK   27  A    between atoms: _106  and  _108
REMARK   28  A    between atoms: _108  and  _109
REMARK   29  A    between atoms: _108  and  _111
REMARK   30  A    between atoms: _111  and  _112
REMARK   31  A    between atoms: _115  and  _117
REMARK   32  A    between atoms: _117  and  _118
REMARK   33  A    between atoms: _117  and  _120
REMARK   34  A    between atoms: _120  and  _121
REMARK   35  A    between atoms: _126  and  _128
REMARK   36  A    between atoms: _128  and  _129
REMARK   37  A    between atoms: _128  and  _131
REMARK   38  A    between atoms: _131  and  _132
REMARK   39  A    between atoms: _135  and  _137
REMARK   40  A    between atoms: _137  and  _138
REMARK   41  A    between atoms: _137  and  _140
REMARK   42  A    between atoms: _140  and  _141
REMARK   43  A    between atoms: _144  and  _146
REMARK   44  A    between atoms: _146  and  _147
REMARK   45  A    between atoms: _146  and  _149
REMARK   46  A    between atoms: _149  and  _150
REMARK   47  A    between atoms: _152  and  _154
REMARK   48  A    between atoms: _154  and  _155
REMARK   49  A    between atoms: _154  and  _157
REMARK   50  A    between atoms: _157  and  _158
REMARK   51  A    between atoms: _163  and  _165
REMARK   52  A    between atoms: _165  and  _166
REMARK   53  A    between atoms: _165  and  _168
REMARK   54  A    between atoms: _168  and  _169
REMARK   55  A    between atoms: _172  and  _174
REMARK   56  A    between atoms: _174  and  _175
REMARK   57  A    between atoms: _174  and  _177
REMARK   58  A    between atoms: _177  and  _178
REMARK   59  A    between atoms: _183  and  _185
REMARK   60  A    between atoms: _185  and  _186
REMARK   61  A    between atoms: _188  and  _190
REMARK   62  A    between atoms: _190  and  _191
REMARK   63  A    between atoms: _190  and  _193
REMARK   64  A    between atoms: _193  and  _194
REMARK   65  A    between atoms: _194  and  _195
REMARK   66  A    between atoms: _201  and  _202
REMARK   67  A    between atoms: _207  and  _209
REMARK   68  A    between atoms: _209  and  _210
REMARK   69  A    between atoms: _209  and  _212
REMARK   70  A    between atoms: _212  and  _213
REMARK   71  A    between atoms: _216  and  _218
REMARK   72  A    between atoms: _218  and  _219
REMARK   73  A    between atoms: _218  and  _221
REMARK   74  A    between atoms: _224  and  _226
REMARK   75  A    between atoms: _226  and  _227
REMARK   76  A    between atoms: _226  and  _229
REMARK   77  A    between atoms: _229  and  _230
REMARK   78  A    between atoms: _233  and  _235
REMARK   79  A    between atoms: _235  and  _236
REMARK   80  A    between atoms: _235  and  _238
REMARK   81  A    between atoms: _238  and  _239
REMARK   82  A    between atoms: _239  and  _240
REMARK   83  A    between atoms: _243  and  _245
REMARK   84  A    between atoms: _245  and  _246
REMARK   85  A    between atoms: _245  and  _248
REMARK   86  A    between atoms: _248  and  _249
REMARK   87  A    between atoms: _249  and  _251
REMARK   88  A    between atoms: _251  and  MN_300
REMARK   89  A    between atoms: _252  and  _254
REMARK   90  A    between atoms: _254  and  _255
REMARK   91  A    between atoms: _254  and  _257
REMARK   92  A    between atoms: _257  and  _258
REMARK   93  A    between atoms: _261  and  _263
REMARK   94  A    between atoms: _263  and  _264
REMARK   95  A    between atoms: _266  and  _268
REMARK   96  A    between atoms: _268  and  _269
REMARK   97  A    between atoms: _268  and  _271
REMARK   98  A    between atoms: _271  and  _272
REMARK   99  A    between atoms: _276  and  _277
REMARK  100  A    between atoms: _282  and  _284
REMARK  101  A    between atoms: _284  and  _285
REMARK  102  A    between atoms: _284  and  _287
REMARK  103  A    between atoms: _290  and  _292
REMARK  104  A    between atoms: _292  and  _293
REMARK  105  A    between atoms: _292  and  _295
REMARK  106  A    between atoms: _295  and  _296
REMARK  107  A    between atoms: _296  and  _297
REMARK                            x       y       z     vdW  Elec       q    Type
REMARK                         _______ _______ _______ _____ _____    ______ ____
ROOT
ATOM      1  O   HOH     1      -6.164 -28.664  -6.031  0.00  0.00    +0.000 OA
ENDROOT
TORSDOF 0
REMARK  Name = ../refined-set-2016/3mjl/3mjl_pocket.pdb
REMARK  107 active torsions:
REMARK  status: ('A' for Active; 'I' for Inactive)
REMARK    1  A    between atoms: _1  and  _3
REMARK    2  A    between atoms: _3  and  _4
REMARK    3  A    between atoms: _6  and  _8
REMARK    4  A    between atoms: _8  and  _9
REMARK    5  A    between atoms: _8  and  _11
REMARK    6  A    between atoms: _11  and  _12
REMARK    7  A    between atoms: _12  and  _13
REMARK    8  A    between atoms: _18  and  _20
REMARK    9  A    between atoms: _20  and  _21
REMARK   10  A    between atoms: _20  and  _23
REMARK   11  A    between atoms: _23  and  _24
REMARK   12  A    between atoms: _24  and  _25
REMARK   13  A    between atoms: _25  and  _26
REMARK   14  A    between atoms: _35  and  _37
REMARK   15  A    between atoms: _37  and  _38
REMARK   16  A    between atoms: _37  and  _40
REMARK   17  A    between atoms: _40  and  _41
REMARK   18  A    between atoms: _42  and  MN_301
REMARK   19  A    between atoms: _46  and  _48
REMARK   20  A    between atoms: _48  and  _49
REMARK   21  A    between atoms: _48  and  _51
REMARK   22  A    between atoms: _51  and  _52
REMARK   23  A    between atoms: _62  and  _64
REMARK   24  A    between atoms: _90  and  _93
REMARK   25  A    between atoms: _93  and  _94
REMARK   26  A    between atoms: _99  and  _100
REMARK   27  A    between atoms: _106  and  _108
REMARK   28  A    between atoms: _108  and  _109
REMARK   29  A    between atoms: _108  and  _111
REMARK   30  A    between atoms: _111  and  _112
REMARK   31  A    between atoms: _115  and  _117
REMARK   32  A    between atoms: _117  and  _118
REMARK   33  A    between atoms: _117  and  _120
REMARK   34  A    between atoms: _120  and  _121
REMARK   35  A    between atoms: _126  and  _128
REMARK   36  A    between atoms: _128  and  _129
REMARK   37  A    between atoms: _128  and  _131
REMARK   38  A    between atoms: _131  and  _132
REMARK   39  A    between atoms: _135  and  _137
REMARK   40  A    between atoms: _137  and  _138
REMARK   41  A    between atoms: _137  and  _140
REMARK   42  A    between atoms: _140  and  _141
REMARK   43  A    between atoms: _144  and  _146
REMARK   44  A    between atoms: _146  and  _147
REMARK   45  A    between atoms: _146  and  _149
REMARK   46  A    between atoms: _149  and  _150
REMARK   47  A    between atoms: _152  and  _154
REMARK   48  A    between atoms: _154  and  _155
REMARK   49  A    between atoms: _154  and  _157
REMARK   50  A    between atoms: _157  and  _158
REMARK   51  A    between atoms: _163  and  _165
REMARK   52  A    between atoms: _165  and  _166
REMARK   53  A    between atoms: _165  and  _168
REMARK   54  A    between atoms: _168  and  _169
REMARK   55  A    between atoms: _172  and  _174
REMARK   56  A    between atoms: _174  and  _175
REMARK   57  A    between atoms: _174  and  _177
REMARK   58  A    between atoms: _177  and  _178
REMARK   59  A    between atoms: _183  and  _185
REMARK   60  A    between atoms: _185  and  _186
REMARK   61  A    between atoms: _188  and  _190
REMARK   62  A    between atoms: _190  and  _191
REMARK   63  A    between atoms: _190  and  _193
REMARK   64  A    between atoms: _193  and  _194
REMARK   65  A    between atoms: _194  and  _195
REMARK   66  A    between atoms: _201  and  _202
REMARK   67  A    between atoms: _207  and  _209
REMARK   68  A    between atoms: _209  and  _210
REMARK   69  A    between atoms: _209  and  _212
REMARK   70  A    between atoms: _212  and  _213
REMARK   71  A    between atoms: _216  and  _218
REMARK   72  A    between atoms: _218  and  _219
REMARK   73  A    between atoms: _218  and  _221
REMARK   74  A    between atoms: _224  and  _226
REMARK   75  A    between atoms: _226  and  _227
REMARK   76  A    between atoms: _226  and  _229
REMARK   77  A    between atoms: _229  and  _230
REMARK   78  A    between atoms: _233  and  _235
REMARK   79  A    between atoms: _235  and  _236
REMARK   80  A    between atoms: _235  and  _238
REMARK   81  A    between atoms: _238  and  _239
REMARK   82  A    between atoms: _239  and  _240
REMARK   83  A    between atoms: _243  and  _245
REMARK   84  A    between atoms: _245  and  _246
REMARK   85  A    between atoms: _245  and  _248
REMARK   86  A    between atoms: _248  and  _249
REMARK   87  A    between atoms: _249  and  _251
REMARK   88  A    between atoms: _251  and  MN_300
REMARK   89  A    between atoms: _252  and  _254
REMARK   90  A    between atoms: _254  and  _255
REMARK   91  A    between atoms: _254  and  _257
REMARK   92  A    between atoms: _257  and  _258
REMARK   93  A    between atoms: _261  and  _263
REMARK   94  A    between atoms: _263  and  _264
REMARK   95  A    between atoms: _266  and  _268
REMARK   96  A    between atoms: _268  and  _269
REMARK   97  A    between atoms: _268  and  _271
REMARK   98  A    between atoms: _271  and  _272
REMARK   99  A    between atoms: _276  and  _277
REMARK  100  A    between atoms: _282  and  _284
REMARK  101  A    between atoms: _284  and  _285
REMARK  102  A    between atoms: _284  and  _287
REMARK  103  A    between atoms: _290  and  _292
REMARK  104  A    between atoms: _292  and  _293
REMARK  105  A    between atoms: _292  and  _295
REMARK  106  A    between atoms: _295  and  _296
REMARK  107  A    between atoms: _296  and  _297
REMARK                            x       y       z     vdW  Elec       q    Type
REMARK                         _______ _______ _______ _____ _____    ______ ____
ROOT
ATOM      1  O   HOH     1      -2.268 -25.944  -9.368  0.00  0.00    +0.000 OA
ENDROOT
TORSDOF 0
REMARK  Name = ../refined-set-2016/3mjl/3mjl_pocket.pdb
REMARK  107 active torsions:
REMARK  status: ('A' for Active; 'I' for Inactive)
REMARK    1  A    between atoms: _1  and  _3
REMARK    2  A    between atoms: _3  and  _4
REMARK    3  A    between atoms: _6  and  _8
REMARK    4  A    between atoms: _8  and  _9
REMARK    5  A    between atoms: _8  and  _11
REMARK    6  A    between atoms: _11  and  _12
REMARK    7  A    between atoms: _12  and  _13
REMARK    8  A    between atoms: _18  and  _20
REMARK    9  A    between atoms: _20  and  _21
REMARK   10  A    between atoms: _20  and  _23
REMARK   11  A    between atoms: _23  and  _24
REMARK   12  A    between atoms: _24  and  _25
REMARK   13  A    between atoms: _25  and  _26
REMARK   14  A    between atoms: _35  and  _37
REMARK   15  A    between atoms: _37  and  _38
REMARK   16  A    between atoms: _37  and  _40
REMARK   17  A    between atoms: _40  and  _41
REMARK   18  A    between atoms: _42  and  MN_301
REMARK   19  A    between atoms: _46  and  _48
REMARK   20  A    between atoms: _48  and  _49
REMARK   21  A    between atoms: _48  and  _51
REMARK   22  A    between atoms: _51  and  _52
REMARK   23  A    between atoms: _62  and  _64
REMARK   24  A    between atoms: _90  and  _93
REMARK   25  A    between atoms: _93  and  _94
REMARK   26  A    between atoms: _99  and  _100
REMARK   27  A    between atoms: _106  and  _108
REMARK   28  A    between atoms: _108  and  _109
REMARK   29  A    between atoms: _108  and  _111
REMARK   30  A    between atoms: _111  and  _112
REMARK   31  A    between atoms: _115  and  _117
REMARK   32  A    between atoms: _117  and  _118
REMARK   33  A    between atoms: _117  and  _120
REMARK   34  A    between atoms: _120  and  _121
REMARK   35  A    between atoms: _126  and  _128
REMARK   36  A    between atoms: _128  and  _129
REMARK   37  A    between atoms: _128  and  _131
REMARK   38  A    between atoms: _131  and  _132
REMARK   39  A    between atoms: _135  and  _137
REMARK   40  A    between atoms: _137  and  _138
REMARK   41  A    between atoms: _137  and  _140
REMARK   42  A    between atoms: _140  and  _141
REMARK   43  A    between atoms: _144  and  _146
REMARK   44  A    between atoms: _146  and  _147
REMARK   45  A    between atoms: _146  and  _149
REMARK   46  A    between atoms: _149  and  _150
REMARK   47  A    between atoms: _152  and  _154
REMARK   48  A    between atoms: _154  and  _155
REMARK   49  A    between atoms: _154  and  _157
REMARK   50  A    between atoms: _157  and  _158
REMARK   51  A    between atoms: _163  and  _165
REMARK   52  A    between atoms: _165  and  _166
REMARK   53  A    between atoms: _165  and  _168
REMARK   54  A    between atoms: _168  and  _169
REMARK   55  A    between atoms: _172  and  _174
REMARK   56  A    between atoms: _174  and  _175
REMARK   57  A    between atoms: _174  and  _177
REMARK   58  A    between atoms: _177  and  _178
REMARK   59  A    between atoms: _183  and  _185
REMARK   60  A    between atoms: _185  and  _186
REMARK   61  A    between atoms: _188  and  _190
REMARK   62  A    between atoms: _190  and  _191
REMARK   63  A    between atoms: _190  and  _193
REMARK   64  A    between atoms: _193  and  _194
REMARK   65  A    between atoms: _194  and  _195
REMARK   66  A    between atoms: _201  and  _202
REMARK   67  A    between atoms: _207  and  _209
REMARK   68  A    between atoms: _209  and  _210
REMARK   69  A    between atoms: _209  and  _212
REMARK   70  A    between atoms: _212  and  _213
REMARK   71  A    between atoms: _216  and  _218
REMARK   72  A    between atoms: _218  and  _219
REMARK   73  A    between atoms: _218  and  _221
REMARK   74  A    between atoms: _224  and  _226
REMARK   75  A    between atoms: _226  and  _227
REMARK   76  A    between atoms: _226  and  _229
REMARK   77  A    between atoms: _229  and  _230
REMARK   78  A    between atoms: _233  and  _235
REMARK   79  A    between atoms: _235  and  _236
REMARK   80  A    between atoms: _235  and  _238
REMARK   81  A    between atoms: _238  and  _239
REMARK   82  A    between atoms: _239  and  _240
REMARK   83  A    between atoms: _243  and  _245
REMARK   84  A    between atoms: _245  and  _246
REMARK   85  A    between atoms: _245  and  _248
REMARK   86  A    between atoms: _248  and  _249
REMARK   87  A    between atoms: _249  and  _251
REMARK   88  A    between atoms: _251  and  MN_300
REMARK   89  A    between atoms: _252  and  _254
REMARK   90  A    between atoms: _254  and  _255
REMARK   91  A    between atoms: _254  and  _257
REMARK   92  A    between atoms: _257  and  _258
REMARK   93  A    between atoms: _261  and  _263
REMARK   94  A    between atoms: _263  and  _264
REMARK   95  A    between atoms: _266  and  _268
REMARK   96  A    between atoms: _268  and  _269
REMARK   97  A    between atoms: _268  and  _271
REMARK   98  A    between atoms: _271  and  _272
REMARK   99  A    between atoms: _276  and  _277
REMARK  100  A    between atoms: _282  and  _284
REMARK  101  A    between atoms: _284  and  _285
REMARK  102  A    between atoms: _284  and  _287
REMARK  103  A    between atoms: _290  and  _292
REMARK  104  A    between atoms: _292  and  _293
REMARK  105  A    between atoms: _292  and  _295
REMARK  106  A    between atoms: _295  and  _296
REMARK  107  A    between atoms: _296  and  _297
REMARK                            x       y       z     vdW  Elec       q    Type
REMARK                         _______ _______ _______ _____ _____    ______ ____
ROOT
ATOM      1  O   HOH     1       1.711 -21.181 -10.297  0.00  0.00    +0.000 OA
ENDROOT
TORSDOF 0
REMARK  Name = ../refined-set-2016/3mjl/3mjl_pocket.pdb
REMARK  107 active torsions:
REMARK  status: ('A' for Active; 'I' for Inactive)
REMARK    1  A    between atoms: _1  and  _3
REMARK    2  A    between atoms: _3  and  _4
REMARK    3  A    between atoms: _6  and  _8
REMARK    4  A    between atoms: _8  and  _9
REMARK    5  A    between atoms: _8  and  _11
REMARK    6  A    between atoms: _11  and  _12
REMARK    7  A    between atoms: _12  and  _13
REMARK    8  A    between atoms: _18  and  _20
REMARK    9  A    between atoms: _20  and  _21
REMARK   10  A    between atoms: _20  and  _23
REMARK   11  A    between atoms: _23  and  _24
REMARK   12  A    between atoms: _24  and  _25
REMARK   13  A    between atoms: _25  and  _26
REMARK   14  A    between atoms: _35  and  _37
REMARK   15  A    between atoms: _37  and  _38
REMARK   16  A    between atoms: _37  and  _40
REMARK   17  A    between atoms: _40  and  _41
REMARK   18  A    between atoms: _42  and  MN_301
REMARK   19  A    between atoms: _46  and  _48
REMARK   20  A    between atoms: _48  and  _49
REMARK   21  A    between atoms: _48  and  _51
REMARK   22  A    between atoms: _51  and  _52
REMARK   23  A    between atoms: _62  and  _64
REMARK   24  A    between atoms: _90  and  _93
REMARK   25  A    between atoms: _93  and  _94
REMARK   26  A    between atoms: _99  and  _100
REMARK   27  A    between atoms: _106  and  _108
REMARK   28  A    between atoms: _108  and  _109
REMARK   29  A    between atoms: _108  and  _111
REMARK   30  A    between atoms: _111  and  _112
REMARK   31  A    between atoms: _115  and  _117
REMARK   32  A    between atoms: _117  and  _118
REMARK   33  A    between atoms: _117  and  _120
REMARK   34  A    between atoms: _120  and  _121
REMARK   35  A    between atoms: _126  and  _128
REMARK   36  A    between atoms: _128  and  _129
REMARK   37  A    between atoms: _128  and  _131
REMARK   38  A    between atoms: _131  and  _132
REMARK   39  A    between atoms: _135  and  _137
REMARK   40  A    between atoms: _137  and  _138
REMARK   41  A    between atoms: _137  and  _140
REMARK   42  A    between atoms: _140  and  _141
REMARK   43  A    between atoms: _144  and  _146
REMARK   44  A    between atoms: _146  and  _147
REMARK   45  A    between atoms: _146  and  _149
REMARK   46  A    between atoms: _149  and  _150
REMARK   47  A    between atoms: _152  and  _154
REMARK   48  A    between atoms: _154  and  _155
REMARK   49  A    between atoms: _154  and  _157
REMARK   50  A    between atoms: _157  and  _158
REMARK   51  A    between atoms: _163  and  _165
REMARK   52  A    between atoms: _165  and  _166
REMARK   53  A    between atoms: _165  and  _168
REMARK   54  A    between atoms: _168  and  _169
REMARK   55  A    between atoms: _172  and  _174
REMARK   56  A    between atoms: _174  and  _175
REMARK   57  A    between atoms: _174  and  _177
REMARK   58  A    between atoms: _177  and  _178
REMARK   59  A    between atoms: _183  and  _185
REMARK   60  A    between atoms: _185  and  _186
REMARK   61  A    between atoms: _188  and  _190
REMARK   62  A    between atoms: _190  and  _191
REMARK   63  A    between atoms: _190  and  _193
REMARK   64  A    between atoms: _193  and  _194
REMARK   65  A    between atoms: _194  and  _195
REMARK   66  A    between atoms: _201  and  _202
REMARK   67  A    between atoms: _207  and  _209
REMARK   68  A    between atoms: _209  and  _210
REMARK   69  A    between atoms: _209  and  _212
REMARK   70  A    between atoms: _212  and  _213
REMARK   71  A    between atoms: _216  and  _218
REMARK   72  A    between atoms: _218  and  _219
REMARK   73  A    between atoms: _218  and  _221
REMARK   74  A    between atoms: _224  and  _226
REMARK   75  A    between atoms: _226  and  _227
REMARK   76  A    between atoms: _226  and  _229
REMARK   77  A    between atoms: _229  and  _230
REMARK   78  A    between atoms: _233  and  _235
REMARK   79  A    between atoms: _235  and  _236
REMARK   80  A    between atoms: _235  and  _238
REMARK   81  A    between atoms: _238  and  _239
REMARK   82  A    between atoms: _239  and  _240
REMARK   83  A    between atoms: _243  and  _245
REMARK   84  A    between atoms: _245  and  _246
REMARK   85  A    between atoms: _245  and  _248
REMARK   86  A    between atoms: _248  and  _249
REMARK   87  A    between atoms: _249  and  _251
REMARK   88  A    between atoms: _251  and  MN_300
REMARK   89  A    between atoms: _252  and  _254
REMARK   90  A    between atoms: _254  and  _255
REMARK   91  A    between atoms: _254  and  _257
REMARK   92  A    between atoms: _257  and  _258
REMARK   93  A    between atoms: _261  and  _263
REMARK   94  A    between atoms: _263  and  _264
REMARK   95  A    between atoms: _266  and  _268
REMARK   96  A    between atoms: _268  and  _269
REMARK   97  A    between atoms: _268  and  _271
REMARK   98  A    between atoms: _271  and  _272
REMARK   99  A    between atoms: _276  and  _277
REMARK  100  A    between atoms: _282  and  _284
REMARK  101  A    between atoms: _284  and  _285
REMARK  102  A    between atoms: _284  and  _287
REMARK  103  A    between atoms: _290  and  _292
REMARK  104  A    between atoms: _292  and  _293
REMARK  105  A    between atoms: _292  and  _295
REMARK  106  A    between atoms: _295  and  _296
REMARK  107  A    between atoms: _296  and  _297
REMARK                            x       y       z     vdW  Elec       q    Type
REMARK                         _______ _______ _______ _____ _____    ______ ____
ROOT
ATOM      1  O   HOH     1       0.863 -22.912 -12.209  0.00  0.00    +0.000 OA
ENDROOT
TORSDOF 0
REMARK  Name = ../refined-set-2016/3mjl/3mjl_pocket.pdb
REMARK  107 active torsions:
REMARK  status: ('A' for Active; 'I' for Inactive)
REMARK    1  A    between atoms: _1  and  _3
REMARK    2  A    between atoms: _3  and  _4
REMARK    3  A    between atoms: _6  and  _8
REMARK    4  A    between atoms: _8  and  _9
REMARK    5  A    between atoms: _8  and  _11
REMARK    6  A    between atoms: _11  and  _12
REMARK    7  A    between atoms: _12  and  _13
REMARK    8  A    between atoms: _18  and  _20
REMARK    9  A    between atoms: _20  and  _21
REMARK   10  A    between atoms: _20  and  _23
REMARK   11  A    between atoms: _23  and  _24
REMARK   12  A    between atoms: _24  and  _25
REMARK   13  A    between atoms: _25  and  _26
REMARK   14  A    between atoms: _35  and  _37
REMARK   15  A    between atoms: _37  and  _38
REMARK   16  A    between atoms: _37  and  _40
REMARK   17  A    between atoms: _40  and  _41
REMARK   18  A    between atoms: _42  and  MN_301
REMARK   19  A    between atoms: _46  and  _48
REMARK   20  A    between atoms: _48  and  _49
REMARK   21  A    between atoms: _48  and  _51
REMARK   22  A    between atoms: _51  and  _52
REMARK   23  A    between atoms: _62  and  _64
REMARK   24  A    between atoms: _90  and  _93
REMARK   25  A    between atoms: _93  and  _94
REMARK   26  A    between atoms: _99  and  _100
REMARK   27  A    between atoms: _106  and  _108
REMARK   28  A    between atoms: _108  and  _109
REMARK   29  A    between atoms: _108  and  _111
REMARK   30  A    between atoms: _111  and  _112
REMARK   31  A    between atoms: _115  and  _117
REMARK   32  A    between atoms: _117  and  _118
REMARK   33  A    between atoms: _117  and  _120
REMARK   34  A    between atoms: _120  and  _121
REMARK   35  A    between atoms: _126  and  _128
REMARK   36  A    between atoms: _128  and  _129
REMARK   37  A    between atoms: _128  and  _131
REMARK   38  A    between atoms: _131  and  _132
REMARK   39  A    between atoms: _135  and  _137
REMARK   40  A    between atoms: _137  and  _138
REMARK   41  A    between atoms: _137  and  _140
REMARK   42  A    between atoms: _140  and  _141
REMARK   43  A    between atoms: _144  and  _146
REMARK   44  A    between atoms: _146  and  _147
REMARK   45  A    between atoms: _146  and  _149
REMARK   46  A    between atoms: _149  and  _150
REMARK   47  A    between atoms: _152  and  _154
REMARK   48  A    between atoms: _154  and  _155
REMARK   49  A    between atoms: _154  and  _157
REMARK   50  A    between atoms: _157  and  _158
REMARK   51  A    between atoms: _163  and  _165
REMARK   52  A    between atoms: _165  and  _166
REMARK   53  A    between atoms: _165  and  _168
REMARK   54  A    between atoms: _168  and  _169
REMARK   55  A    between atoms: _172  and  _174
REMARK   56  A    between atoms: _174  and  _175
REMARK   57  A    between atoms: _174  and  _177
REMARK   58  A    between atoms: _177  and  _178
REMARK   59  A    between atoms: _183  and  _185
REMARK   60  A    between atoms: _185  and  _186
REMARK   61  A    between atoms: _188  and  _190
REMARK   62  A    between atoms: _190  and  _191
REMARK   63  A    between atoms: _190  and  _193
REMARK   64  A    between atoms: _193  and  _194
REMARK   65  A    between atoms: _194  and  _195
REMARK   66  A    between atoms: _201  and  _202
REMARK   67  A    between atoms: _207  and  _209
REMARK   68  A    between atoms: _209  and  _210
REMARK   69  A    between atoms: _209  and  _212
REMARK   70  A    between atoms: _212  and  _213
REMARK   71  A    between atoms: _216  and  _218
REMARK   72  A    between atoms: _218  and  _219
REMARK   73  A    between atoms: _218  and  _221
REMARK   74  A    between atoms: _224  and  _226
REMARK   75  A    between atoms: _226  and  _227
REMARK   76  A    between atoms: _226  and  _229
REMARK   77  A    between atoms: _229  and  _230
REMARK   78  A    between atoms: _233  and  _235
REMARK   79  A    between atoms: _235  and  _236
REMARK   80  A    between atoms: _235  and  _238
REMARK   81  A    between atoms: _238  and  _239
REMARK   82  A    between atoms: _239  and  _240
REMARK   83  A    between atoms: _243  and  _245
REMARK   84  A    between atoms: _245  and  _246
REMARK   85  A    between atoms: _245  and  _248
REMARK   86  A    between atoms: _248  and  _249
REMARK   87  A    between atoms: _249  and  _251
REMARK   88  A    between atoms: _251  and  MN_300
REMARK   89  A    between atoms: _252  and  _254
REMARK   90  A    between atoms: _254  and  _255
REMARK   91  A    between atoms: _254  and  _257
REMARK   92  A    between atoms: _257  and  _258
REMARK   93  A    between atoms: _261  and  _263
REMARK   94  A    between atoms: _263  and  _264
REMARK   95  A    between atoms: _266  and  _268
REMARK   96  A    between atoms: _268  and  _269
REMARK   97  A    between atoms: _268  and  _271
REMARK   98  A    between atoms: _271  and  _272
REMARK   99  A    between atoms: _276  and  _277
REMARK  100  A    between atoms: _282  and  _284
REMARK  101  A    between atoms: _284  and  _285
REMARK  102  A    between atoms: _284  and  _287
REMARK  103  A    between atoms: _290  and  _292
REMARK  104  A    between atoms: _292  and  _293
REMARK  105  A    between atoms: _292  and  _295
REMARK  106  A    between atoms: _295  and  _296
REMARK  107  A    between atoms: _296  and  _297
REMARK                            x       y       z     vdW  Elec       q    Type
REMARK                         _______ _______ _______ _____ _____    ______ ____
ROOT
ATOM      1  O   HOH     1       3.123 -22.948 -10.091  0.00  0.00    +0.000 OA
ENDROOT
TORSDOF 0
REMARK  Name = ../refined-set-2016/3mjl/3mjl_pocket.pdb
REMARK  107 active torsions:
REMARK  status: ('A' for Active; 'I' for Inactive)
REMARK    1  A    between atoms: _1  and  _3
REMARK    2  A    between atoms: _3  and  _4
REMARK    3  A    between atoms: _6  and  _8
REMARK    4  A    between atoms: _8  and  _9
REMARK    5  A    between atoms: _8  and  _11
REMARK    6  A    between atoms: _11  and  _12
REMARK    7  A    between atoms: _12  and  _13
REMARK    8  A    between atoms: _18  and  _20
REMARK    9  A    between atoms: _20  and  _21
REMARK   10  A    between atoms: _20  and  _23
REMARK   11  A    between atoms: _23  and  _24
REMARK   12  A    between atoms: _24  and  _25
REMARK   13  A    between atoms: _25  and  _26
REMARK   14  A    between atoms: _35  and  _37
REMARK   15  A    between atoms: _37  and  _38
REMARK   16  A    between atoms: _37  and  _40
REMARK   17  A    between atoms: _40  and  _41
REMARK   18  A    between atoms: _42  and  MN_301
REMARK   19  A    between atoms: _46  and  _48
REMARK   20  A    between atoms: _48  and  _49
REMARK   21  A    between atoms: _48  and  _51
REMARK   22  A    between atoms: _51  and  _52
REMARK   23  A    between atoms: _62  and  _64
REMARK   24  A    between atoms: _90  and  _93
REMARK   25  A    between atoms: _93  and  _94
REMARK   26  A    between atoms: _99  and  _100
REMARK   27  A    between atoms: _106  and  _108
REMARK   28  A    between atoms: _108  and  _109
REMARK   29  A    between atoms: _108  and  _111
REMARK   30  A    between atoms: _111  and  _112
REMARK   31  A    between atoms: _115  and  _117
REMARK   32  A    between atoms: _117  and  _118
REMARK   33  A    between atoms: _117  and  _120
REMARK   34  A    between atoms: _120  and  _121
REMARK   35  A    between atoms: _126  and  _128
REMARK   36  A    between atoms: _128  and  _129
REMARK   37  A    between atoms: _128  and  _131
REMARK   38  A    between atoms: _131  and  _132
REMARK   39  A    between atoms: _135  and  _137
REMARK   40  A    between atoms: _137  and  _138
REMARK   41  A    between atoms: _137  and  _140
REMARK   42  A    between atoms: _140  and  _141
REMARK   43  A    between atoms: _144  and  _146
REMARK   44  A    between atoms: _146  and  _147
REMARK   45  A    between atoms: _146  and  _149
REMARK   46  A    between atoms: _149  and  _150
REMARK   47  A    between atoms: _152  and  _154
REMARK   48  A    between atoms: _154  and  _155
REMARK   49  A    between atoms: _154  and  _157
REMARK   50  A    between atoms: _157  and  _158
REMARK   51  A    between atoms: _163  and  _165
REMARK   52  A    between atoms: _165  and  _166
REMARK   53  A    between atoms: _165  and  _168
REMARK   54  A    between atoms: _168  and  _169
REMARK   55  A    between atoms: _172  and  _174
REMARK   56  A    between atoms: _174  and  _175
REMARK   57  A    between atoms: _174  and  _177
REMARK   58  A    between atoms: _177  and  _178
REMARK   59  A    between atoms: _183  and  _185
REMARK   60  A    between atoms: _185  and  _186
REMARK   61  A    between atoms: _188  and  _190
REMARK   62  A    between atoms: _190  and  _191
REMARK   63  A    between atoms: _190  and  _193
REMARK   64  A    between atoms: _193  and  _194
REMARK   65  A    between atoms: _194  and  _195
REMARK   66  A    between atoms: _201  and  _202
REMARK   67  A    between atoms: _207  and  _209
REMARK   68  A    between atoms: _209  and  _210
REMARK   69  A    between atoms: _209  and  _212
REMARK   70  A    between atoms: _212  and  _213
REMARK   71  A    between atoms: _216  and  _218
REMARK   72  A    between atoms: _218  and  _219
REMARK   73  A    between atoms: _218  and  _221
REMARK   74  A    between atoms: _224  and  _226
REMARK   75  A    between atoms: _226  and  _227
REMARK   76  A    between atoms: _226  and  _229
REMARK   77  A    between atoms: _229  and  _230
REMARK   78  A    between atoms: _233  and  _235
REMARK   79  A    between atoms: _235  and  _236
REMARK   80  A    between atoms: _235  and  _238
REMARK   81  A    between atoms: _238  and  _239
REMARK   82  A    between atoms: _239  and  _240
REMARK   83  A    between atoms: _243  and  _245
REMARK   84  A    between atoms: _245  and  _246
REMARK   85  A    between atoms: _245  and  _248
REMARK   86  A    between atoms: _248  and  _249
REMARK   87  A    between atoms: _249  and  _251
REMARK   88  A    between atoms: _251  and  MN_300
REMARK   89  A    between atoms: _252  and  _254
REMARK   90  A    between atoms: _254  and  _255
REMARK   91  A    between atoms: _254  and  _257
REMARK   92  A    between atoms: _257  and  _258
REMARK   93  A    between atoms: _261  and  _263
REMARK   94  A    between atoms: _263  and  _264
REMARK   95  A    between atoms: _266  and  _268
REMARK   96  A    between atoms: _268  and  _269
REMARK   97  A    between atoms: _268  and  _271
REMARK   98  A    between atoms: _271  and  _272
REMARK   99  A    between atoms: _276  and  _277
REMARK  100  A    between atoms: _282  and  _284
REMARK  101  A    between atoms: _284  and  _285
REMARK  102  A    between atoms: _284  and  _287
REMARK  103  A    between atoms: _290  and  _292
REMARK  104  A    between atoms: _292  and  _293
REMARK  105  A    between atoms: _292  and  _295
REMARK  106  A    between atoms: _295  and  _296
REMARK  107  A    between atoms: _296  and  _297
REMARK                            x       y       z     vdW  Elec       q    Type
REMARK                         _______ _______ _______ _____ _____    ______ ____
ROOT
ATOM      1  O   HOH     1      -9.100 -28.886  -3.389  0.00  0.00    +0.000 OA
ENDROOT
TORSDOF 0
REMARK  Name = ../refined-set-2016/3mjl/3mjl_pocket.pdb
REMARK  107 active torsions:
REMARK  status: ('A' for Active; 'I' for Inactive)
REMARK    1  A    between atoms: _1  and  _3
REMARK    2  A    between atoms: _3  and  _4
REMARK    3  A    between atoms: _6  and  _8
REMARK    4  A    between atoms: _8  and  _9
REMARK    5  A    between atoms: _8  and  _11
REMARK    6  A    between atoms: _11  and  _12
REMARK    7  A    between atoms: _12  and  _13
REMARK    8  A    between atoms: _18  and  _20
REMARK    9  A    between atoms: _20  and  _21
REMARK   10  A    between atoms: _20  and  _23
REMARK   11  A    between atoms: _23  and  _24
REMARK   12  A    between atoms: _24  and  _25
REMARK   13  A    between atoms: _25  and  _26
REMARK   14  A    between atoms: _35  and  _37
REMARK   15  A    between atoms: _37  and  _38
REMARK   16  A    between atoms: _37  and  _40
REMARK   17  A    between atoms: _40  and  _41
REMARK   18  A    between atoms: _42  and  MN_301
REMARK   19  A    between atoms: _46  and  _48
REMARK   20  A    between atoms: _48  and  _49
REMARK   21  A    between atoms: _48  and  _51
REMARK   22  A    between atoms: _51  and  _52
REMARK   23  A    between atoms: _62  and  _64
REMARK   24  A    between atoms: _90  and  _93
REMARK   25  A    between atoms: _93  and  _94
REMARK   26  A    between atoms: _99  and  _100
REMARK   27  A    between atoms: _106  and  _108
REMARK   28  A    between atoms: _108  and  _109
REMARK   29  A    between atoms: _108  and  _111
REMARK   30  A    between atoms: _111  and  _112
REMARK   31  A    between atoms: _115  and  _117
REMARK   32  A    between atoms: _117  and  _118
REMARK   33  A    between atoms: _117  and  _120
REMARK   34  A    between atoms: _120  and  _121
REMARK   35  A    between atoms: _126  and  _128
REMARK   36  A    between atoms: _128  and  _129
REMARK   37  A    between atoms: _128  and  _131
REMARK   38  A    between atoms: _131  and  _132
REMARK   39  A    between atoms: _135  and  _137
REMARK   40  A    between atoms: _137  and  _138
REMARK   41  A    between atoms: _137  and  _140
REMARK   42  A    between atoms: _140  and  _141
REMARK   43  A    between atoms: _144  and  _146
REMARK   44  A    between atoms: _146  and  _147
REMARK   45  A    between atoms: _146  and  _149
REMARK   46  A    between atoms: _149  and  _150
REMARK   47  A    between atoms: _152  and  _154
REMARK   48  A    between atoms: _154  and  _155
REMARK   49  A    between atoms: _154  and  _157
REMARK   50  A    between atoms: _157  and  _158
REMARK   51  A    between atoms: _163  and  _165
REMARK   52  A    between atoms: _165  and  _166
REMARK   53  A    between atoms: _165  and  _168
REMARK   54  A    between atoms: _168  and  _169
REMARK   55  A    between atoms: _172  and  _174
REMARK   56  A    between atoms: _174  and  _175
REMARK   57  A    between atoms: _174  and  _177
REMARK   58  A    between atoms: _177  and  _178
REMARK   59  A    between atoms: _183  and  _185
REMARK   60  A    between atoms: _185  and  _186
REMARK   61  A    between atoms: _188  and  _190
REMARK   62  A    between atoms: _190  and  _191
REMARK   63  A    between atoms: _190  and  _193
REMARK   64  A    between atoms: _193  and  _194
REMARK   65  A    between atoms: _194  and  _195
REMARK   66  A    between atoms: _201  and  _202
REMARK   67  A    between atoms: _207  and  _209
REMARK   68  A    between atoms: _209  and  _210
REMARK   69  A    between atoms: _209  and  _212
REMARK   70  A    between atoms: _212  and  _213
REMARK   71  A    between atoms: _216  and  _218
REMARK   72  A    between atoms: _218  and  _219
REMARK   73  A    between atoms: _218  and  _221
REMARK   74  A    between atoms: _224  and  _226
REMARK   75  A    between atoms: _226  and  _227
REMARK   76  A    between atoms: _226  and  _229
REMARK   77  A    between atoms: _229  and  _230
REMARK   78  A    between atoms: _233  and  _235
REMARK   79  A    between atoms: _235  and  _236
REMARK   80  A    between atoms: _235  and  _238
REMARK   81  A    between atoms: _238  and  _239
REMARK   82  A    between atoms: _239  and  _240
REMARK   83  A    between atoms: _243  and  _245
REMARK   84  A    between atoms: _245  and  _246
REMARK   85  A    between atoms: _245  and  _248
REMARK   86  A    between atoms: _248  and  _249
REMARK   87  A    between atoms: _249  and  _251
REMARK   88  A    between atoms: _251  and  MN_300
REMARK   89  A    between atoms: _252  and  _254
REMARK   90  A    between atoms: _254  and  _255
REMARK   91  A    between atoms: _254  and  _257
REMARK   92  A    between atoms: _257  and  _258
REMARK   93  A    between atoms: _261  and  _263
REMARK   94  A    between atoms: _263  and  _264
REMARK   95  A    between atoms: _266  and  _268
REMARK   96  A    between atoms: _268  and  _269
REMARK   97  A    between atoms: _268  and  _271
REMARK   98  A    between atoms: _271  and  _272
REMARK   99  A    between atoms: _276  and  _277
REMARK  100  A    between atoms: _282  and  _284
REMARK  101  A    between atoms: _284  and  _285
REMARK  102  A    between atoms: _284  and  _287
REMARK  103  A    between atoms: _290  and  _292
REMARK  104  A    between atoms: _292  and  _293
REMARK  105  A    between atoms: _292  and  _295
REMARK  106  A    between atoms: _295  and  _296
REMARK  107  A    between atoms: _296  and  _297
REMARK                            x       y       z     vdW  Elec       q    Type
REMARK                         _______ _______ _______ _____ _____    ______ ____
ROOT
ATOM      1  O   HOH     1      -3.758 -26.671  -7.162  0.00  0.00    +0.000 OA
ENDROOT
TORSDOF 0
