REMARK  Name = ../refined-set-2016/3ta1/3ta1_pocket.pdb
REMARK  221 active torsions:
REMARK  status: ('A' for Active; 'I' for Inactive)
REMARK    1  A    between atoms: _1  and  _3
REMARK    2  A    between atoms: _3  and  _4
REMARK    3  A    between atoms: _7  and  _9
REMARK    4  A    between atoms: _9  and  _10
REMARK    5  A    between atoms: _9  and  _12
REMARK    6  A    between atoms: _15  and  _17
REMARK    7  A    between atoms: _17  and  _18
REMARK    8  A    between atoms: _17  and  _20
REMARK    9  A    between atoms: _20  and  _21
REMARK   10  A    between atoms: _24  and  _26
REMARK   11  A    between atoms: _26  and  _27
REMARK   12  A    between atoms: _26  and  _29
REMARK   13  A    between atoms: _29  and  _30
REMARK   14  A    between atoms: _30  and  _31
REMARK   15  A    between atoms: _31  and  _32
REMARK   16  A    between atoms: _41  and  _43
REMARK   17  A    between atoms: _43  and  _44
REMARK   18  A    between atoms: _43  and  _46
REMARK   19  A    between atoms: _49  and  _51
REMARK   20  A    between atoms: _51  and  _52
REMARK   21  A    between atoms: _51  and  _54
REMARK   22  A    between atoms: _54  and  _55
REMARK   23  A    between atoms: _55  and  _56
REMARK   24  A    between atoms: _56  and  _57
REMARK   25  A    between atoms: _57  and  _58
REMARK   26  A    between atoms: _62  and  _64
REMARK   27  A    between atoms: _64  and  _65
REMARK   28  A    between atoms: _67  and  _69
REMARK   29  A    between atoms: _69  and  _70
REMARK   30  A    between atoms: _69  and  _72
REMARK   31  A    between atoms: _72  and  _73
REMARK   32  A    between atoms: _73  and  _74
REMARK   33  A    between atoms: _74  and  _75
REMARK   34  A    between atoms: _84  and  _86
REMARK   35  A    between atoms: _86  and  _87
REMARK   36  A    between atoms: _89  and  _91
REMARK   37  A    between atoms: _91  and  _92
REMARK   38  A    between atoms: _91  and  _94
REMARK   39  A    between atoms: _94  and  _95
REMARK   40  A    between atoms: _95  and  _96
REMARK   41  A    between atoms: _99  and  _101
REMARK   42  A    between atoms: _101  and  _102
REMARK   43  A    between atoms: _101  and  _104
REMARK   44  A    between atoms: _104  and  _105
REMARK   45  A    between atoms: _105  and  _106
REMARK   46  A    between atoms: _111  and  _113
REMARK   47  A    between atoms: _113  and  _114
REMARK   48  A    between atoms: _113  and  _116
REMARK   49  A    between atoms: _116  and  _117
REMARK   50  A    between atoms: _117  and  _118
REMARK   51  A    between atoms: _118  and  _119
REMARK   52  A    between atoms: _119  and  _120
REMARK   53  A    between atoms: _124  and  _126
REMARK   54  A    between atoms: _126  and  _127
REMARK   55  A    between atoms: _126  and  _129
REMARK   56  A    between atoms: _129  and  _130
REMARK   57  A    between atoms: _133  and  _135
REMARK   58  A    between atoms: _135  and  _136
REMARK   59  A    between atoms: _135  and  _138
REMARK   60  A    between atoms: _138  and  _139
REMARK   61  A    between atoms: _142  and  _144
REMARK   62  A    between atoms: _144  and  _145
REMARK   63  A    between atoms: _144  and  _147
REMARK   64  A    between atoms: _147  and  _148
REMARK   65  A    between atoms: _151  and  _153
REMARK   66  A    between atoms: _153  and  _154
REMARK   67  A    between atoms: _153  and  _156
REMARK   68  A    between atoms: _156  and  _157
REMARK   69  A    between atoms: _157  and  _158
REMARK   70  A    between atoms: _163  and  _165
REMARK   71  A    between atoms: _165  and  _166
REMARK   72  A    between atoms: _165  and  _168
REMARK   73  A    between atoms: _168  and  _169
REMARK   74  A    between atoms: _169  and  _170
REMARK   75  A    between atoms: _170  and  _171
REMARK   76  A    between atoms: _171  and  _172
REMARK   77  A    between atoms: _176  and  _178
REMARK   78  A    between atoms: _178  and  _179
REMARK   79  A    between atoms: _178  and  _181
REMARK   80  A    between atoms: _181  and  _182
REMARK   81  A    between atoms: _185  and  _187
REMARK   82  A    between atoms: _187  and  _188
REMARK   83  A    between atoms: _187  and  _190
REMARK   84  A    between atoms: _190  and  _191
REMARK   85  A    between atoms: _191  and  _192
REMARK   86  A    between atoms: _192  and  _193
REMARK   87  A    between atoms: _193  and  _194
REMARK   88  A    between atoms: _198  and  _200
REMARK   89  A    between atoms: _200  and  _201
REMARK   90  A    between atoms: _200  and  _203
REMARK   91  A    between atoms: _203  and  _204
REMARK   92  A    between atoms: _207  and  _209
REMARK   93  A    between atoms: _209  and  _210
REMARK   94  A    between atoms: _212  and  _214
REMARK   95  A    between atoms: _214  and  _215
REMARK   96  A    between atoms: _214  and  _217
REMARK   97  A    between atoms: _217  and  _218
REMARK   98  A    between atoms: _218  and  _219
REMARK   99  A    between atoms: _219  and  _220
REMARK  100  A    between atoms: _220  and  _221
REMARK  101  A    between atoms: _225  and  _227
REMARK  102  A    between atoms: _227  and  _228
REMARK  103  A    between atoms: _227  and  _230
REMARK  104  A    between atoms: _230  and  _231
REMARK  105  A    between atoms: _237  and  _239
REMARK  106  A    between atoms: _239  and  _240
REMARK  107  A    between atoms: _242  and  _244
REMARK  108  A    between atoms: _244  and  _245
REMARK  109  A    between atoms: _244  and  _247
REMARK  110  A    between atoms: _247  and  _248
REMARK  111  A    between atoms: _251  and  _253
REMARK  112  A    between atoms: _253  and  _254
REMARK  113  A    between atoms: _256  and  _258
REMARK  114  A    between atoms: _258  and  _259
REMARK  115  A    between atoms: _258  and  _261
REMARK  116  A    between atoms: _261  and  _262
REMARK  117  A    between atoms: _262  and  _263
REMARK  118  A    between atoms: _263  and  _264
REMARK  119  A    between atoms: _273  and  _275
REMARK  120  A    between atoms: _275  and  _276
REMARK  121  A    between atoms: _275  and  _278
REMARK  122  A    between atoms: _278  and  _279
REMARK  123  A    between atoms: _282  and  _284
REMARK  124  A    between atoms: _284  and  _285
REMARK  125  A    between atoms: _284  and  _287
REMARK  126  A    between atoms: _287  and  _288
REMARK  127  A    between atoms: _294  and  _298
REMARK  128  A    between atoms: _298  and  _299
REMARK  129  A    between atoms: _298  and  _301
REMARK  130  A    between atoms: _301  and  _302
REMARK  131  A    between atoms: _302  and  _303
REMARK  132  A    between atoms: _305  and  _307
REMARK  133  A    between atoms: _307  and  _308
REMARK  134  A    between atoms: _307  and  _310
REMARK  135  A    between atoms: _310  and  _311
REMARK  136  A    between atoms: _311  and  _312
REMARK  137  A    between atoms: _312  and  _313
REMARK  138  A    between atoms: _313  and  _314
REMARK  139  A    between atoms: _318  and  _320
REMARK  140  A    between atoms: _320  and  _321
REMARK  141  A    between atoms: _320  and  _323
REMARK  142  A    between atoms: _323  and  _324
REMARK  143  A    between atoms: _324  and  _325
REMARK  144  A    between atoms: _327  and  _329
REMARK  145  A    between atoms: _329  and  _330
REMARK  146  A    between atoms: _329  and  _332
REMARK  147  A    between atoms: _335  and  _337
REMARK  148  A    between atoms: _337  and  _338
REMARK  149  A    between atoms: _337  and  _340
REMARK  150  A    between atoms: _340  and  _341
REMARK  151  A    between atoms: _347  and  _349
REMARK  152  A    between atoms: _349  and  _350
REMARK  153  A    between atoms: _349  and  _352
REMARK  154  A    between atoms: _355  and  _357
REMARK  155  A    between atoms: _357  and  _358
REMARK  156  A    between atoms: _360  and  _362
REMARK  157  A    between atoms: _362  and  _363
REMARK  158  A    between atoms: _362  and  _365
REMARK  159  A    between atoms: _365  and  _366
REMARK  160  A    between atoms: _366  and  _367
REMARK  161  A    between atoms: _369  and  _371
REMARK  162  A    between atoms: _371  and  _372
REMARK  163  A    between atoms: _371  and  _374
REMARK  164  A    between atoms: _374  and  _375
REMARK  165  A    between atoms: _378  and  _380
REMARK  166  A    between atoms: _380  and  _381
REMARK  167  A    between atoms: _380  and  _383
REMARK  168  A    between atoms: _386  and  _388
REMARK  169  A    between atoms: _388  and  _389
REMARK  170  A    between atoms: _388  and  _391
REMARK  171  A    between atoms: _394  and  _396
REMARK  172  A    between atoms: _396  and  _397
REMARK  173  A    between atoms: _396  and  _399
REMARK  174  A    between atoms: _399  and  _400
REMARK  175  A    between atoms: _400  and  _401
REMARK  176  A    between atoms: _404  and  _406
REMARK  177  A    between atoms: _406  and  _407
REMARK  178  A    between atoms: _406  and  _409
REMARK  179  A    between atoms: _412  and  _414
REMARK  180  A    between atoms: _414  and  _415
REMARK  181  A    between atoms: _414  and  _417
REMARK  182  A    between atoms: _420  and  _422
REMARK  183  A    between atoms: _422  and  _423
REMARK  184  A    between atoms: _422  and  _425
REMARK  185  A    between atoms: _428  and  _430
REMARK  186  A    between atoms: _430  and  _431
REMARK  187  A    between atoms: _430  and  _433
REMARK  188  A    between atoms: _433  and  _434
REMARK  189  A    between atoms: _436  and  _438
REMARK  190  A    between atoms: _438  and  _439
REMARK  191  A    between atoms: _438  and  _441
REMARK  192  A    between atoms: _441  and  _442
REMARK  193  A    between atoms: _444  and  _446
REMARK  194  A    between atoms: _446  and  _447
REMARK  195  A    between atoms: _446  and  _449
REMARK  196  A    between atoms: _452  and  _454
REMARK  197  A    between atoms: _454  and  _455
REMARK  198  A    between atoms: _454  and  _457
REMARK  199  A    between atoms: _457  and  _458
REMARK  200  A    between atoms: _458  and  _459
REMARK  201  A    between atoms: _459  and  _460
REMARK  202  A    between atoms: _460  and  _461
REMARK  203  A    between atoms: _465  and  _467
REMARK  204  A    between atoms: _467  and  _468
REMARK  205  A    between atoms: _467  and  _470
REMARK  206  A    between atoms: _470  and  _471
REMARK  207  A    between atoms: _474  and  _476
REMARK  208  A    between atoms: _476  and  _477
REMARK  209  A    between atoms: _476  and  _479
REMARK  210  A    between atoms: _479  and  _480
REMARK  211  A    between atoms: _480  and  _481
REMARK  212  A    between atoms: _481  and  _482
REMARK  213  A    between atoms: _491  and  _493
REMARK  214  A    between atoms: _493  and  _494
REMARK  215  A    between atoms: _493  and  _496
REMARK  216  A    between atoms: _496  and  _497
REMARK  217  A    between atoms: _500  and  _502
REMARK  218  A    between atoms: _502  and  _503
REMARK  219  A    between atoms: _502  and  _505
REMARK  220  A    between atoms: _505  and  _506
REMARK  221  A    between atoms: _506  and  _507
REMARK                            x       y       z     vdW  Elec       q    Type
REMARK                         _______ _______ _______ _____ _____    ______ ____
ROOT
ATOM      1  CA  ILE A   3       5.536  -7.062  -9.263  0.00  0.00    +0.149 C 
ENDROOT
BRANCH   1   3
ATOM      2  C   VAL A   2       7.445  -7.112 -10.806  0.00  0.00    +0.241 C 
ATOM      3  N   ILE A   3       6.613  -6.418 -10.026  0.00  0.00    -0.297 N 
ATOM      4  H   ILE A   3       6.731  -5.387  -9.956  0.00  0.00    +0.150 HD
ATOM      5  O   VAL A   2       7.332  -8.321 -10.997  0.00  0.00    -0.273 OA
BRANCH   2   6
ATOM      6  CA  VAL A   2       8.631  -6.353 -11.376  0.00  0.00    +0.148 C 
BRANCH   6   9
ATOM      7  C   ALA A   1      10.552  -6.216  -9.859  0.00  0.00    +0.238 C 
ATOM      8  O   ALA A   1      10.394  -4.999  -9.707  0.00  0.00    -0.274 OA
ATOM      9  N   VAL A   2       9.788  -6.943 -10.669  0.00  0.00    -0.297 N 
ATOM     10  H   VAL A   2      10.009  -7.950 -10.808  0.00  0.00    +0.150 HD
BRANCH   7  11
ATOM     11  CA  ALA A   1      11.652  -6.950  -9.090  0.00  0.00    +0.145 C 
ATOM     12  CB  ALA A   1      11.222  -7.147  -7.639  0.00  0.00    +0.028 C 
BRANCH  11  13
ATOM     13  N   ALA A   1      12.893  -6.196  -9.145  0.00  0.00    -0.238 NA
ATOM     14  H   ALA A   1      13.001  -5.337  -8.569  0.00  0.00    +0.142 HD
ENDBRANCH  11  13
ENDBRANCH   7  11
ENDBRANCH   6   9
BRANCH   6  15
ATOM     15  CB  VAL A   2       8.699  -6.420 -12.925  0.00  0.00    +0.027 C 
ATOM     16  CG2 VAL A   2       9.974  -5.734 -13.446  0.00  0.00    +0.002 C 
ATOM     17  CG1 VAL A   2       7.442  -5.786 -13.541  0.00  0.00    +0.002 C 
ENDBRANCH   6  15
ENDBRANCH   2   6
ENDBRANCH   1   3
BRANCH   1  18
ATOM     18  C   ILE A   3       4.166  -6.446  -9.516  0.00  0.00    +0.241 C 
ATOM     19  N   ARG A   4       3.114  -7.066  -8.946  0.00  0.00    -0.298 N 
ATOM     20  H   ARG A   4       3.274  -7.968  -8.454  0.00  0.00    +0.150 HD
ATOM     21  O   ILE A   3       4.064  -5.390 -10.135  0.00  0.00    -0.273 OA
BRANCH  19  22
ATOM     22  CA  ARG A   4       1.752  -6.522  -8.990  0.00  0.00    +0.137 C 
BRANCH  22  23
ATOM     23  C   ARG A   4       1.773  -5.263  -8.109  0.00  0.00    +0.227 C 
ATOM     24  O   ARG A   4       2.386  -5.282  -7.040  0.00  0.00    -0.286 OA
ENDBRANCH  22  23
BRANCH  22  25
ATOM     25  CB  ARG A   4       0.735  -7.534  -8.422  0.00  0.00    +0.031 C 
BRANCH  25  26
ATOM     26  CG  ARG A   4       0.726  -8.883  -9.142  0.00  0.00    +0.045 C 
BRANCH  26  27
ATOM     27  CD  ARG A   4      -0.189  -9.870  -8.425  0.00  0.00    +0.174 C 
BRANCH  27  28
ATOM     28  NE  ARG A   4      -0.180 -11.193  -9.067  0.00  0.00    -0.265 N 
ATOM     29  HE  ARG A   4       0.486 -11.903  -8.701  0.00  0.00    +0.259 HD
ATOM     30  CZ  ARG A   4      -0.963 -11.545 -10.082  0.00  0.00    +0.342 C 
ATOM     31  NH2 ARG A   4      -1.821 -10.677 -10.599  0.00  0.00    -0.292 N 
ATOM     32 HH21 ARG A   4      -1.884  -9.714 -10.211  0.00  0.00    +0.255 HD
ATOM     33 HH22 ARG A   4      -2.431 -10.959 -11.393  0.00  0.00    +0.255 HD
ATOM     34  NH1 ARG A   4      -0.877 -12.759 -10.603  0.00  0.00    -0.292 N 
ATOM     35 HH11 ARG A   4      -0.194 -13.443 -10.218  0.00  0.00    +0.255 HD
ATOM     36 HH12 ARG A   4      -1.492 -13.029 -11.397  0.00  0.00    +0.255 HD
ENDBRANCH  27  28
ENDBRANCH  26  27
ENDBRANCH  25  26
ENDBRANCH  22  25
ENDBRANCH  19  22
ENDBRANCH   1  18
BRANCH   1  37
ATOM     37  CB  ILE A   3       5.896  -6.954  -7.729  0.00  0.00    +0.027 C 
ATOM     38  CG2 ILE A   3       7.261  -7.642  -7.403  0.00  0.00    +0.002 C 
BRANCH  37  39
ATOM     39  CG1 ILE A   3       5.847  -5.454  -7.243  0.00  0.00    +0.002 C 
ATOM     40  CD1 ILE A   3       6.135  -5.160  -5.728  0.00  0.00    +0.000 C 
ENDBRANCH  37  39
ENDBRANCH   1  37
TORSDOF 15
REMARK  Name = ../refined-set-2016/3ta1/3ta1_pocket.pdb
REMARK  221 active torsions:
REMARK  status: ('A' for Active; 'I' for Inactive)
REMARK    1  A    between atoms: _1  and  _3
REMARK    2  A    between atoms: _3  and  _4
REMARK    3  A    between atoms: _7  and  _9
REMARK    4  A    between atoms: _9  and  _10
REMARK    5  A    between atoms: _9  and  _12
REMARK    6  A    between atoms: _15  and  _17
REMARK    7  A    between atoms: _17  and  _18
REMARK    8  A    between atoms: _17  and  _20
REMARK    9  A    between atoms: _20  and  _21
REMARK   10  A    between atoms: _24  and  _26
REMARK   11  A    between atoms: _26  and  _27
REMARK   12  A    between atoms: _26  and  _29
REMARK   13  A    between atoms: _29  and  _30
REMARK   14  A    between atoms: _30  and  _31
REMARK   15  A    between atoms: _31  and  _32
REMARK   16  A    between atoms: _41  and  _43
REMARK   17  A    between atoms: _43  and  _44
REMARK   18  A    between atoms: _43  and  _46
REMARK   19  A    between atoms: _49  and  _51
REMARK   20  A    between atoms: _51  and  _52
REMARK   21  A    between atoms: _51  and  _54
REMARK   22  A    between atoms: _54  and  _55
REMARK   23  A    between atoms: _55  and  _56
REMARK   24  A    between atoms: _56  and  _57
REMARK   25  A    between atoms: _57  and  _58
REMARK   26  A    between atoms: _62  and  _64
REMARK   27  A    between atoms: _64  and  _65
REMARK   28  A    between atoms: _67  and  _69
REMARK   29  A    between atoms: _69  and  _70
REMARK   30  A    between atoms: _69  and  _72
REMARK   31  A    between atoms: _72  and  _73
REMARK   32  A    between atoms: _73  and  _74
REMARK   33  A    between atoms: _74  and  _75
REMARK   34  A    between atoms: _84  and  _86
REMARK   35  A    between atoms: _86  and  _87
REMARK   36  A    between atoms: _89  and  _91
REMARK   37  A    between atoms: _91  and  _92
REMARK   38  A    between atoms: _91  and  _94
REMARK   39  A    between atoms: _94  and  _95
REMARK   40  A    between atoms: _95  and  _96
REMARK   41  A    between atoms: _99  and  _101
REMARK   42  A    between atoms: _101  and  _102
REMARK   43  A    between atoms: _101  and  _104
REMARK   44  A    between atoms: _104  and  _105
REMARK   45  A    between atoms: _105  and  _106
REMARK   46  A    between atoms: _111  and  _113
REMARK   47  A    between atoms: _113  and  _114
REMARK   48  A    between atoms: _113  and  _116
REMARK   49  A    between atoms: _116  and  _117
REMARK   50  A    between atoms: _117  and  _118
REMARK   51  A    between atoms: _118  and  _119
REMARK   52  A    between atoms: _119  and  _120
REMARK   53  A    between atoms: _124  and  _126
REMARK   54  A    between atoms: _126  and  _127
REMARK   55  A    between atoms: _126  and  _129
REMARK   56  A    between atoms: _129  and  _130
REMARK   57  A    between atoms: _133  and  _135
REMARK   58  A    between atoms: _135  and  _136
REMARK   59  A    between atoms: _135  and  _138
REMARK   60  A    between atoms: _138  and  _139
REMARK   61  A    between atoms: _142  and  _144
REMARK   62  A    between atoms: _144  and  _145
REMARK   63  A    between atoms: _144  and  _147
REMARK   64  A    between atoms: _147  and  _148
REMARK   65  A    between atoms: _151  and  _153
REMARK   66  A    between atoms: _153  and  _154
REMARK   67  A    between atoms: _153  and  _156
REMARK   68  A    between atoms: _156  and  _157
REMARK   69  A    between atoms: _157  and  _158
REMARK   70  A    between atoms: _163  and  _165
REMARK   71  A    between atoms: _165  and  _166
REMARK   72  A    between atoms: _165  and  _168
REMARK   73  A    between atoms: _168  and  _169
REMARK   74  A    between atoms: _169  and  _170
REMARK   75  A    between atoms: _170  and  _171
REMARK   76  A    between atoms: _171  and  _172
REMARK   77  A    between atoms: _176  and  _178
REMARK   78  A    between atoms: _178  and  _179
REMARK   79  A    between atoms: _178  and  _181
REMARK   80  A    between atoms: _181  and  _182
REMARK   81  A    between atoms: _185  and  _187
REMARK   82  A    between atoms: _187  and  _188
REMARK   83  A    between atoms: _187  and  _190
REMARK   84  A    between atoms: _190  and  _191
REMARK   85  A    between atoms: _191  and  _192
REMARK   86  A    between atoms: _192  and  _193
REMARK   87  A    between atoms: _193  and  _194
REMARK   88  A    between atoms: _198  and  _200
REMARK   89  A    between atoms: _200  and  _201
REMARK   90  A    between atoms: _200  and  _203
REMARK   91  A    between atoms: _203  and  _204
REMARK   92  A    between atoms: _207  and  _209
REMARK   93  A    between atoms: _209  and  _210
REMARK   94  A    between atoms: _212  and  _214
REMARK   95  A    between atoms: _214  and  _215
REMARK   96  A    between atoms: _214  and  _217
REMARK   97  A    between atoms: _217  and  _218
REMARK   98  A    between atoms: _218  and  _219
REMARK   99  A    between atoms: _219  and  _220
REMARK  100  A    between atoms: _220  and  _221
REMARK  101  A    between atoms: _225  and  _227
REMARK  102  A    between atoms: _227  and  _228
REMARK  103  A    between atoms: _227  and  _230
REMARK  104  A    between atoms: _230  and  _231
REMARK  105  A    between atoms: _237  and  _239
REMARK  106  A    between atoms: _239  and  _240
REMARK  107  A    between atoms: _242  and  _244
REMARK  108  A    between atoms: _244  and  _245
REMARK  109  A    between atoms: _244  and  _247
REMARK  110  A    between atoms: _247  and  _248
REMARK  111  A    between atoms: _251  and  _253
REMARK  112  A    between atoms: _253  and  _254
REMARK  113  A    between atoms: _256  and  _258
REMARK  114  A    between atoms: _258  and  _259
REMARK  115  A    between atoms: _258  and  _261
REMARK  116  A    between atoms: _261  and  _262
REMARK  117  A    between atoms: _262  and  _263
REMARK  118  A    between atoms: _263  and  _264
REMARK  119  A    between atoms: _273  and  _275
REMARK  120  A    between atoms: _275  and  _276
REMARK  121  A    between atoms: _275  and  _278
REMARK  122  A    between atoms: _278  and  _279
REMARK  123  A    between atoms: _282  and  _284
REMARK  124  A    between atoms: _284  and  _285
REMARK  125  A    between atoms: _284  and  _287
REMARK  126  A    between atoms: _287  and  _288
REMARK  127  A    between atoms: _294  and  _298
REMARK  128  A    between atoms: _298  and  _299
REMARK  129  A    between atoms: _298  and  _301
REMARK  130  A    between atoms: _301  and  _302
REMARK  131  A    between atoms: _302  and  _303
REMARK  132  A    between atoms: _305  and  _307
REMARK  133  A    between atoms: _307  and  _308
REMARK  134  A    between atoms: _307  and  _310
REMARK  135  A    between atoms: _310  and  _311
REMARK  136  A    between atoms: _311  and  _312
REMARK  137  A    between atoms: _312  and  _313
REMARK  138  A    between atoms: _313  and  _314
REMARK  139  A    between atoms: _318  and  _320
REMARK  140  A    between atoms: _320  and  _321
REMARK  141  A    between atoms: _320  and  _323
REMARK  142  A    between atoms: _323  and  _324
REMARK  143  A    between atoms: _324  and  _325
REMARK  144  A    between atoms: _327  and  _329
REMARK  145  A    between atoms: _329  and  _330
REMARK  146  A    between atoms: _329  and  _332
REMARK  147  A    between atoms: _335  and  _337
REMARK  148  A    between atoms: _337  and  _338
REMARK  149  A    between atoms: _337  and  _340
REMARK  150  A    between atoms: _340  and  _341
REMARK  151  A    between atoms: _347  and  _349
REMARK  152  A    between atoms: _349  and  _350
REMARK  153  A    between atoms: _349  and  _352
REMARK  154  A    between atoms: _355  and  _357
REMARK  155  A    between atoms: _357  and  _358
REMARK  156  A    between atoms: _360  and  _362
REMARK  157  A    between atoms: _362  and  _363
REMARK  158  A    between atoms: _362  and  _365
REMARK  159  A    between atoms: _365  and  _366
REMARK  160  A    between atoms: _366  and  _367
REMARK  161  A    between atoms: _369  and  _371
REMARK  162  A    between atoms: _371  and  _372
REMARK  163  A    between atoms: _371  and  _374
REMARK  164  A    between atoms: _374  and  _375
REMARK  165  A    between atoms: _378  and  _380
REMARK  166  A    between atoms: _380  and  _381
REMARK  167  A    between atoms: _380  and  _383
REMARK  168  A    between atoms: _386  and  _388
REMARK  169  A    between atoms: _388  and  _389
REMARK  170  A    between atoms: _388  and  _391
REMARK  171  A    between atoms: _394  and  _396
REMARK  172  A    between atoms: _396  and  _397
REMARK  173  A    between atoms: _396  and  _399
REMARK  174  A    between atoms: _399  and  _400
REMARK  175  A    between atoms: _400  and  _401
REMARK  176  A    between atoms: _404  and  _406
REMARK  177  A    between atoms: _406  and  _407
REMARK  178  A    between atoms: _406  and  _409
REMARK  179  A    between atoms: _412  and  _414
REMARK  180  A    between atoms: _414  and  _415
REMARK  181  A    between atoms: _414  and  _417
REMARK  182  A    between atoms: _420  and  _422
REMARK  183  A    between atoms: _422  and  _423
REMARK  184  A    between atoms: _422  and  _425
REMARK  185  A    between atoms: _428  and  _430
REMARK  186  A    between atoms: _430  and  _431
REMARK  187  A    between atoms: _430  and  _433
REMARK  188  A    between atoms: _433  and  _434
REMARK  189  A    between atoms: _436  and  _438
REMARK  190  A    between atoms: _438  and  _439
REMARK  191  A    between atoms: _438  and  _441
REMARK  192  A    between atoms: _441  and  _442
REMARK  193  A    between atoms: _444  and  _446
REMARK  194  A    between atoms: _446  and  _447
REMARK  195  A    between atoms: _446  and  _449
REMARK  196  A    between atoms: _452  and  _454
REMARK  197  A    between atoms: _454  and  _455
REMARK  198  A    between atoms: _454  and  _457
REMARK  199  A    between atoms: _457  and  _458
REMARK  200  A    between atoms: _458  and  _459
REMARK  201  A    between atoms: _459  and  _460
REMARK  202  A    between atoms: _460  and  _461
REMARK  203  A    between atoms: _465  and  _467
REMARK  204  A    between atoms: _467  and  _468
REMARK  205  A    between atoms: _467  and  _470
REMARK  206  A    between atoms: _470  and  _471
REMARK  207  A    between atoms: _474  and  _476
REMARK  208  A    between atoms: _476  and  _477
REMARK  209  A    between atoms: _476  and  _479
REMARK  210  A    between atoms: _479  and  _480
REMARK  211  A    between atoms: _480  and  _481
REMARK  212  A    between atoms: _481  and  _482
REMARK  213  A    between atoms: _491  and  _493
REMARK  214  A    between atoms: _493  and  _494
REMARK  215  A    between atoms: _493  and  _496
REMARK  216  A    between atoms: _496  and  _497
REMARK  217  A    between atoms: _500  and  _502
REMARK  218  A    between atoms: _502  and  _503
REMARK  219  A    between atoms: _502  and  _505
REMARK  220  A    between atoms: _505  and  _506
REMARK  221  A    between atoms: _506  and  _507
REMARK                            x       y       z     vdW  Elec       q    Type
REMARK                         _______ _______ _______ _____ _____    ______ ____
ROOT
ATOM      1  C   ARG A   4       3.624  -9.417 -20.570  0.00  0.00    +0.241 C 
ATOM      2  O   ARG A   4       4.846  -9.385 -20.424  0.00  0.00    -0.273 OA
ATOM      3  N   GLY A   5       2.934 -10.533 -20.739  0.00  0.00    -0.295 N 
ATOM      4  H   GLY A   5       1.901 -10.469 -20.845  0.00  0.00    +0.150 HD
ENDROOT
BRANCH   3   5
ATOM      5  CA  GLY A   5       3.562 -11.850 -20.783  0.00  0.00    +0.176 C 
BRANCH   5   6
ATOM      6  C   GLY A   5       2.502 -12.915 -20.850  0.00  0.00    +0.243 C 
ATOM      7  N   GLU A   6       2.681 -13.978 -20.049  0.00  0.00    -0.297 N 
ATOM      8  H   GLU A   6       3.564 -13.989 -19.499  0.00  0.00    +0.150 HD
ATOM      9  O   GLY A   5       1.522 -12.758 -21.585  0.00  0.00    -0.273 OA
BRANCH   7  10
ATOM     10  CA  GLU A   6       1.785 -15.129 -19.851  0.00  0.00    +0.149 C 
BRANCH  10  11
ATOM     11  C   GLU A   6       0.356 -14.699 -19.459  0.00  0.00    +0.241 C 
ATOM     12  N   GLN A   7       0.231 -13.736 -18.526  0.00  0.00    -0.297 N 
ATOM     13  H   GLN A   7       1.114 -13.307 -18.181  0.00  0.00    +0.150 HD
ATOM     14  O   GLU A   6      -0.603 -15.286 -19.944  0.00  0.00    -0.273 OA
BRANCH  12  15
ATOM     15  CA  GLN A   7      -1.021 -13.223 -17.940  0.00  0.00    +0.149 C 
BRANCH  15  16
ATOM     16  C   GLN A   7      -2.006 -12.696 -18.996  0.00  0.00    +0.241 C 
ATOM     17  N   LYS A   8      -3.296 -13.032 -18.848  0.00  0.00    -0.298 N 
ATOM     18  H   LYS A   8      -3.572 -13.634 -18.046  0.00  0.00    +0.150 HD
ATOM     19  O   GLN A   7      -1.602 -12.000 -19.925  0.00  0.00    -0.273 OA
BRANCH  17  20
ATOM     20  CA  LYS A   8      -4.326 -12.576 -19.781  0.00  0.00    +0.137 C 
BRANCH  20  21
ATOM     21  C   LYS A   8      -4.602 -11.074 -19.629  0.00  0.00    +0.227 C 
ATOM     22  O   LYS A   8      -4.638 -10.559 -18.505  0.00  0.00    -0.286 OA
ENDBRANCH  20  21
BRANCH  20  23
ATOM     23  CB  LYS A   8      -5.607 -13.431 -19.679  0.00  0.00    +0.028 C 
BRANCH  23  24
ATOM     24  CG  LYS A   8      -6.239 -13.546 -18.279  0.00  0.00    -0.000 C 
BRANCH  24  25
ATOM     25  CD  LYS A   8      -7.346 -12.503 -17.989  0.00  0.00    -0.024 C 
BRANCH  25  26
ATOM     26  CE  LYS A   8      -8.593 -12.613 -18.847  0.00  0.00    -0.086 C 
BRANCH  26  27
ATOM     27  NZ  LYS A   8      -9.364 -13.854 -18.569  0.00  0.00    +0.380 N 
ATOM     28  HZ1 LYS A   8      -9.658 -13.862 -17.571  0.00  0.00    -0.089 HD
ATOM     29  HZ2 LYS A   8      -8.766 -14.683 -18.762  0.00  0.00    -0.089 HD
ATOM     30  HZ3 LYS A   8     -10.205 -13.882 -19.180  0.00  0.00    -0.089 HD
ENDBRANCH  26  27
ENDBRANCH  25  26
ENDBRANCH  24  25
ENDBRANCH  23  24
ENDBRANCH  20  23
ENDBRANCH  17  20
ENDBRANCH  15  16
BRANCH  15  31
ATOM     31  CB  GLN A   7      -0.692 -12.120 -16.913  0.00  0.00    +0.039 C 
BRANCH  31  32
ATOM     32  CG  GLN A   7      -1.870 -11.608 -16.065  0.00  0.00    +0.087 C 
BRANCH  32  33
ATOM     33  CD  GLN A   7      -1.486 -10.430 -15.191  0.00  0.00    +0.219 C 
ATOM     34  NE2 GLN A   7      -2.381 -10.033 -14.315  0.00  0.00    -0.329 N 
ATOM     35 HE21 GLN A   7      -2.179  -9.222 -13.696  0.00  0.00    +0.145 HD
ATOM     36 HE22 GLN A   7      -3.292 -10.529 -14.241  0.00  0.00    +0.145 HD
ATOM     37  OE1 GLN A   7      -0.398  -9.850 -15.291  0.00  0.00    -0.275 OA
ENDBRANCH  32  33
ENDBRANCH  31  32
ENDBRANCH  15  31
ENDBRANCH  12  15
ENDBRANCH  10  11
BRANCH  10  38
ATOM     38  CB  GLU A   6       2.344 -15.954 -18.688  0.00  0.00    +0.041 C 
BRANCH  38  39
ATOM     39  CG  GLU A   6       2.578 -17.421 -18.967  0.00  0.00    +0.116 C 
BRANCH  39  40
ATOM     40  CD  GLU A   6       3.548 -18.068 -18.000  0.00  0.00    +0.365 C 
ATOM     41  OE2 GLU A   6       4.119 -17.349 -17.150  0.00  0.00    -0.246 OA
ATOM     42  OE1 GLU A   6       3.760 -19.297 -18.110  0.00  0.00    -0.246 OA
ENDBRANCH  39  40
ENDBRANCH  38  39
ENDBRANCH  10  38
ENDBRANCH   7  10
ENDBRANCH   5   6
ENDBRANCH   3   5
BRANCH   1  43
ATOM     43  CA  ARG A   4       2.825  -8.131 -20.585  0.00  0.00    +0.149 C 
BRANCH  43  46
ATOM     44  C   GLY A   3       3.118  -6.017 -19.380  0.00  0.00    +0.243 C 
ATOM     45  O   GLY A   3       1.911  -5.849 -19.224  0.00  0.00    -0.273 OA
ATOM     46  N   ARG A   4       3.637  -7.053 -20.039  0.00  0.00    -0.297 N 
ATOM     47  H   ARG A   4       4.668  -7.093 -20.169  0.00  0.00    +0.150 HD
BRANCH  44  48
ATOM     48  CA  GLY A   3       4.107  -5.066 -18.760  0.00  0.00    +0.176 C 
BRANCH  48  50
ATOM     49  C   LYS A   2       4.264  -2.796 -18.058  0.00  0.00    +0.241 C 
ATOM     50  N   GLY A   3       3.510  -3.855 -18.224  0.00  0.00    -0.295 N 
ATOM     51  H   GLY A   3       2.500  -3.829 -17.976  0.00  0.00    +0.150 HD
ATOM     52  O   LYS A   2       5.471  -2.795 -18.301  0.00  0.00    -0.273 OA
BRANCH  49  53
ATOM     53  CA  LYS A   2       3.579  -1.549 -17.533  0.00  0.00    +0.149 C 
BRANCH  53  56
ATOM     54  C   VAL A   1       4.514  -0.189 -15.715  0.00  0.00    +0.238 C 
ATOM     55  O   VAL A   1       3.492  -0.276 -15.010  0.00  0.00    -0.274 OA
ATOM     56  N   LYS A   2       4.612  -0.724 -16.928  0.00  0.00    -0.297 N 
ATOM     57  H   LYS A   2       5.477  -0.542 -17.476  0.00  0.00    +0.150 HD
BRANCH  54  58
ATOM     58  CA  VAL A   1       5.760   0.533 -15.211  0.00  0.00    +0.145 C 
BRANCH  58  59
ATOM     59  CB  VAL A   1       7.016  -0.408 -15.224  0.00  0.00    +0.025 C 
ATOM     60  CG2 VAL A   1       6.786  -1.686 -14.419  0.00  0.00    +0.002 C 
ATOM     61  CG1 VAL A   1       8.285   0.309 -14.734  0.00  0.00    +0.002 C 
ENDBRANCH  58  59
BRANCH  58  62
ATOM     62  N   VAL A   1       5.522   1.062 -13.875  0.00  0.00    -0.238 NA
ATOM     63  H   VAL A   1       5.093   0.434 -13.166  0.00  0.00    +0.142 HD
ENDBRANCH  58  62
ENDBRANCH  54  58
ENDBRANCH  53  56
BRANCH  53  64
ATOM     64  CB  LYS A   2       2.846  -0.799 -18.648  0.00  0.00    +0.029 C 
BRANCH  64  65
ATOM     65  CG  LYS A   2       1.888   0.276 -18.142  0.00  0.00    +0.000 C 
BRANCH  65  66
ATOM     66  CD  LYS A   2       1.109   0.889 -19.298  0.00  0.00    -0.024 C 
BRANCH  66  67
ATOM     67  CE  LYS A   2       0.184   1.979 -18.826  0.00  0.00    -0.086 C 
BRANCH  67  68
ATOM     68  NZ  LYS A   2      -0.372   2.749 -19.971  0.00  0.00    +0.380 N 
ATOM     69  HZ1 LYS A   2      -1.005   3.492 -19.613  0.00  0.00    -0.089 HD
ATOM     70  HZ2 LYS A   2       0.407   3.184 -20.506  0.00  0.00    -0.089 HD
ATOM     71  HZ3 LYS A   2      -0.905   2.108 -20.592  0.00  0.00    -0.089 HD
ENDBRANCH  67  68
ENDBRANCH  66  67
ENDBRANCH  65  66
ENDBRANCH  64  65
ENDBRANCH  53  64
ENDBRANCH  49  53
ENDBRANCH  48  50
ENDBRANCH  44  48
ENDBRANCH  43  46
BRANCH  43  72
ATOM     72  CB  ARG A   4       2.256  -7.776 -21.979  0.00  0.00    +0.033 C 
BRANCH  72  73
ATOM     73  CG  ARG A   4       3.238  -7.843 -23.139  0.00  0.00    +0.045 C 
BRANCH  73  74
ATOM     74  CD  ARG A   4       2.525  -7.901 -24.482  0.00  0.00    +0.174 C 
BRANCH  74  75
ATOM     75  NE  ARG A   4       1.545  -8.992 -24.533  0.00  0.00    -0.265 N 
ATOM     76  HE  ARG A   4       1.643  -9.758 -23.837  0.00  0.00    +0.259 HD
ATOM     77  CZ  ARG A   4       0.541  -9.076 -25.402  0.00  0.00    +0.342 C 
ATOM     78  NH2 ARG A   4      -0.299 -10.100 -25.356  0.00  0.00    -0.292 N 
ATOM     79 HH21 ARG A   4      -0.175 -10.842 -24.638  0.00  0.00    +0.255 HD
ATOM     80 HH22 ARG A   4      -1.082 -10.161 -26.037  0.00  0.00    +0.255 HD
ATOM     81  NH1 ARG A   4       0.374  -8.139 -26.329  0.00  0.00    -0.292 N 
ATOM     82 HH11 ARG A   4       1.030  -7.334 -26.378  0.00  0.00    +0.255 HD
ATOM     83 HH12 ARG A   4      -0.413  -8.211 -27.005  0.00  0.00    +0.255 HD
ENDBRANCH  74  75
ENDBRANCH  73  74
ENDBRANCH  72  73
ENDBRANCH  43  72
ENDBRANCH   1  43
TORSDOF 37
REMARK  Name = ../refined-set-2016/3ta1/3ta1_pocket.pdb
REMARK  221 active torsions:
REMARK  status: ('A' for Active; 'I' for Inactive)
REMARK    1  A    between atoms: _1  and  _3
REMARK    2  A    between atoms: _3  and  _4
REMARK    3  A    between atoms: _7  and  _9
REMARK    4  A    between atoms: _9  and  _10
REMARK    5  A    between atoms: _9  and  _12
REMARK    6  A    between atoms: _15  and  _17
REMARK    7  A    between atoms: _17  and  _18
REMARK    8  A    between atoms: _17  and  _20
REMARK    9  A    between atoms: _20  and  _21
REMARK   10  A    between atoms: _24  and  _26
REMARK   11  A    between atoms: _26  and  _27
REMARK   12  A    between atoms: _26  and  _29
REMARK   13  A    between atoms: _29  and  _30
REMARK   14  A    between atoms: _30  and  _31
REMARK   15  A    between atoms: _31  and  _32
REMARK   16  A    between atoms: _41  and  _43
REMARK   17  A    between atoms: _43  and  _44
REMARK   18  A    between atoms: _43  and  _46
REMARK   19  A    between atoms: _49  and  _51
REMARK   20  A    between atoms: _51  and  _52
REMARK   21  A    between atoms: _51  and  _54
REMARK   22  A    between atoms: _54  and  _55
REMARK   23  A    between atoms: _55  and  _56
REMARK   24  A    between atoms: _56  and  _57
REMARK   25  A    between atoms: _57  and  _58
REMARK   26  A    between atoms: _62  and  _64
REMARK   27  A    between atoms: _64  and  _65
REMARK   28  A    between atoms: _67  and  _69
REMARK   29  A    between atoms: _69  and  _70
REMARK   30  A    between atoms: _69  and  _72
REMARK   31  A    between atoms: _72  and  _73
REMARK   32  A    between atoms: _73  and  _74
REMARK   33  A    between atoms: _74  and  _75
REMARK   34  A    between atoms: _84  and  _86
REMARK   35  A    between atoms: _86  and  _87
REMARK   36  A    between atoms: _89  and  _91
REMARK   37  A    between atoms: _91  and  _92
REMARK   38  A    between atoms: _91  and  _94
REMARK   39  A    between atoms: _94  and  _95
REMARK   40  A    between atoms: _95  and  _96
REMARK   41  A    between atoms: _99  and  _101
REMARK   42  A    between atoms: _101  and  _102
REMARK   43  A    between atoms: _101  and  _104
REMARK   44  A    between atoms: _104  and  _105
REMARK   45  A    between atoms: _105  and  _106
REMARK   46  A    between atoms: _111  and  _113
REMARK   47  A    between atoms: _113  and  _114
REMARK   48  A    between atoms: _113  and  _116
REMARK   49  A    between atoms: _116  and  _117
REMARK   50  A    between atoms: _117  and  _118
REMARK   51  A    between atoms: _118  and  _119
REMARK   52  A    between atoms: _119  and  _120
REMARK   53  A    between atoms: _124  and  _126
REMARK   54  A    between atoms: _126  and  _127
REMARK   55  A    between atoms: _126  and  _129
REMARK   56  A    between atoms: _129  and  _130
REMARK   57  A    between atoms: _133  and  _135
REMARK   58  A    between atoms: _135  and  _136
REMARK   59  A    between atoms: _135  and  _138
REMARK   60  A    between atoms: _138  and  _139
REMARK   61  A    between atoms: _142  and  _144
REMARK   62  A    between atoms: _144  and  _145
REMARK   63  A    between atoms: _144  and  _147
REMARK   64  A    between atoms: _147  and  _148
REMARK   65  A    between atoms: _151  and  _153
REMARK   66  A    between atoms: _153  and  _154
REMARK   67  A    between atoms: _153  and  _156
REMARK   68  A    between atoms: _156  and  _157
REMARK   69  A    between atoms: _157  and  _158
REMARK   70  A    between atoms: _163  and  _165
REMARK   71  A    between atoms: _165  and  _166
REMARK   72  A    between atoms: _165  and  _168
REMARK   73  A    between atoms: _168  and  _169
REMARK   74  A    between atoms: _169  and  _170
REMARK   75  A    between atoms: _170  and  _171
REMARK   76  A    between atoms: _171  and  _172
REMARK   77  A    between atoms: _176  and  _178
REMARK   78  A    between atoms: _178  and  _179
REMARK   79  A    between atoms: _178  and  _181
REMARK   80  A    between atoms: _181  and  _182
REMARK   81  A    between atoms: _185  and  _187
REMARK   82  A    between atoms: _187  and  _188
REMARK   83  A    between atoms: _187  and  _190
REMARK   84  A    between atoms: _190  and  _191
REMARK   85  A    between atoms: _191  and  _192
REMARK   86  A    between atoms: _192  and  _193
REMARK   87  A    between atoms: _193  and  _194
REMARK   88  A    between atoms: _198  and  _200
REMARK   89  A    between atoms: _200  and  _201
REMARK   90  A    between atoms: _200  and  _203
REMARK   91  A    between atoms: _203  and  _204
REMARK   92  A    between atoms: _207  and  _209
REMARK   93  A    between atoms: _209  and  _210
REMARK   94  A    between atoms: _212  and  _214
REMARK   95  A    between atoms: _214  and  _215
REMARK   96  A    between atoms: _214  and  _217
REMARK   97  A    between atoms: _217  and  _218
REMARK   98  A    between atoms: _218  and  _219
REMARK   99  A    between atoms: _219  and  _220
REMARK  100  A    between atoms: _220  and  _221
REMARK  101  A    between atoms: _225  and  _227
REMARK  102  A    between atoms: _227  and  _228
REMARK  103  A    between atoms: _227  and  _230
REMARK  104  A    between atoms: _230  and  _231
REMARK  105  A    between atoms: _237  and  _239
REMARK  106  A    between atoms: _239  and  _240
REMARK  107  A    between atoms: _242  and  _244
REMARK  108  A    between atoms: _244  and  _245
REMARK  109  A    between atoms: _244  and  _247
REMARK  110  A    between atoms: _247  and  _248
REMARK  111  A    between atoms: _251  and  _253
REMARK  112  A    between atoms: _253  and  _254
REMARK  113  A    between atoms: _256  and  _258
REMARK  114  A    between atoms: _258  and  _259
REMARK  115  A    between atoms: _258  and  _261
REMARK  116  A    between atoms: _261  and  _262
REMARK  117  A    between atoms: _262  and  _263
REMARK  118  A    between atoms: _263  and  _264
REMARK  119  A    between atoms: _273  and  _275
REMARK  120  A    between atoms: _275  and  _276
REMARK  121  A    between atoms: _275  and  _278
REMARK  122  A    between atoms: _278  and  _279
REMARK  123  A    between atoms: _282  and  _284
REMARK  124  A    between atoms: _284  and  _285
REMARK  125  A    between atoms: _284  and  _287
REMARK  126  A    between atoms: _287  and  _288
REMARK  127  A    between atoms: _294  and  _298
REMARK  128  A    between atoms: _298  and  _299
REMARK  129  A    between atoms: _298  and  _301
REMARK  130  A    between atoms: _301  and  _302
REMARK  131  A    between atoms: _302  and  _303
REMARK  132  A    between atoms: _305  and  _307
REMARK  133  A    between atoms: _307  and  _308
REMARK  134  A    between atoms: _307  and  _310
REMARK  135  A    between atoms: _310  and  _311
REMARK  136  A    between atoms: _311  and  _312
REMARK  137  A    between atoms: _312  and  _313
REMARK  138  A    between atoms: _313  and  _314
REMARK  139  A    between atoms: _318  and  _320
REMARK  140  A    between atoms: _320  and  _321
REMARK  141  A    between atoms: _320  and  _323
REMARK  142  A    between atoms: _323  and  _324
REMARK  143  A    between atoms: _324  and  _325
REMARK  144  A    between atoms: _327  and  _329
REMARK  145  A    between atoms: _329  and  _330
REMARK  146  A    between atoms: _329  and  _332
REMARK  147  A    between atoms: _335  and  _337
REMARK  148  A    between atoms: _337  and  _338
REMARK  149  A    between atoms: _337  and  _340
REMARK  150  A    between atoms: _340  and  _341
REMARK  151  A    between atoms: _347  and  _349
REMARK  152  A    between atoms: _349  and  _350
REMARK  153  A    between atoms: _349  and  _352
REMARK  154  A    between atoms: _355  and  _357
REMARK  155  A    between atoms: _357  and  _358
REMARK  156  A    between atoms: _360  and  _362
REMARK  157  A    between atoms: _362  and  _363
REMARK  158  A    between atoms: _362  and  _365
REMARK  159  A    between atoms: _365  and  _366
REMARK  160  A    between atoms: _366  and  _367
REMARK  161  A    between atoms: _369  and  _371
REMARK  162  A    between atoms: _371  and  _372
REMARK  163  A    between atoms: _371  and  _374
REMARK  164  A    between atoms: _374  and  _375
REMARK  165  A    between atoms: _378  and  _380
REMARK  166  A    between atoms: _380  and  _381
REMARK  167  A    between atoms: _380  and  _383
REMARK  168  A    between atoms: _386  and  _388
REMARK  169  A    between atoms: _388  and  _389
REMARK  170  A    between atoms: _388  and  _391
REMARK  171  A    between atoms: _394  and  _396
REMARK  172  A    between atoms: _396  and  _397
REMARK  173  A    between atoms: _396  and  _399
REMARK  174  A    between atoms: _399  and  _400
REMARK  175  A    between atoms: _400  and  _401
REMARK  176  A    between atoms: _404  and  _406
REMARK  177  A    between atoms: _406  and  _407
REMARK  178  A    between atoms: _406  and  _409
REMARK  179  A    between atoms: _412  and  _414
REMARK  180  A    between atoms: _414  and  _415
REMARK  181  A    between atoms: _414  and  _417
REMARK  182  A    between atoms: _420  and  _422
REMARK  183  A    between atoms: _422  and  _423
REMARK  184  A    between atoms: _422  and  _425
REMARK  185  A    between atoms: _428  and  _430
REMARK  186  A    between atoms: _430  and  _431
REMARK  187  A    between atoms: _430  and  _433
REMARK  188  A    between atoms: _433  and  _434
REMARK  189  A    between atoms: _436  and  _438
REMARK  190  A    between atoms: _438  and  _439
REMARK  191  A    between atoms: _438  and  _441
REMARK  192  A    between atoms: _441  and  _442
REMARK  193  A    between atoms: _444  and  _446
REMARK  194  A    between atoms: _446  and  _447
REMARK  195  A    between atoms: _446  and  _449
REMARK  196  A    between atoms: _452  and  _454
REMARK  197  A    between atoms: _454  and  _455
REMARK  198  A    between atoms: _454  and  _457
REMARK  199  A    between atoms: _457  and  _458
REMARK  200  A    between atoms: _458  and  _459
REMARK  201  A    between atoms: _459  and  _460
REMARK  202  A    between atoms: _460  and  _461
REMARK  203  A    between atoms: _465  and  _467
REMARK  204  A    between atoms: _467  and  _468
REMARK  205  A    between atoms: _467  and  _470
REMARK  206  A    between atoms: _470  and  _471
REMARK  207  A    between atoms: _474  and  _476
REMARK  208  A    between atoms: _476  and  _477
REMARK  209  A    between atoms: _476  and  _479
REMARK  210  A    between atoms: _479  and  _480
REMARK  211  A    between atoms: _480  and  _481
REMARK  212  A    between atoms: _481  and  _482
REMARK  213  A    between atoms: _491  and  _493
REMARK  214  A    between atoms: _493  and  _494
REMARK  215  A    between atoms: _493  and  _496
REMARK  216  A    between atoms: _496  and  _497
REMARK  217  A    between atoms: _500  and  _502
REMARK  218  A    between atoms: _502  and  _503
REMARK  219  A    between atoms: _502  and  _505
REMARK  220  A    between atoms: _505  and  _506
REMARK  221  A    between atoms: _506  and  _507
REMARK                            x       y       z     vdW  Elec       q    Type
REMARK                         _______ _______ _______ _____ _____    ______ ____
ROOT
ATOM      1  CA  GLN A   4       0.149  -1.859 -14.641  0.00  0.00    +0.149 C 
ENDROOT
BRANCH   1   3
ATOM      2  C   LEU A   3      -0.080  -3.353 -16.581  0.00  0.00    +0.241 C 
ATOM      3  N   GLN A   4      -0.642  -2.631 -15.605  0.00  0.00    -0.297 N 
ATOM      4  H   GLN A   4      -1.679  -2.617 -15.527  0.00  0.00    +0.150 HD
ATOM      5  O   LEU A   3       1.138  -3.443 -16.742  0.00  0.00    -0.273 OA
BRANCH   2   6
ATOM      6  CA  LEU A   3      -1.008  -4.151 -17.479  0.00  0.00    +0.149 C 
BRANCH   6   8
ATOM      7  C   LEU A   2      -0.692  -3.468 -19.803  0.00  0.00    +0.241 C 
ATOM      8  N   LEU A   3      -0.420  -4.305 -18.814  0.00  0.00    -0.297 N 
ATOM      9  H   LEU A   3       0.231  -5.097 -18.989  0.00  0.00    +0.150 HD
ATOM     10  O   LEU A   2      -1.462  -2.522 -19.663  0.00  0.00    -0.273 OA
BRANCH   7  11
ATOM     11  CA  LEU A   2      -0.065  -3.771 -21.169  0.00  0.00    +0.149 C 
BRANCH  11  14
ATOM     12  C   ASP A   1      -1.600  -5.299 -22.378  0.00  0.00    +0.239 C 
ATOM     13  O   ASP A   1      -1.026  -6.312 -21.975  0.00  0.00    -0.274 OA
ATOM     14  N   LEU A   2      -1.183  -4.050 -22.080  0.00  0.00    -0.297 N 
ATOM     15  H   LEU A   2      -1.678  -3.246 -22.517  0.00  0.00    +0.150 HD
BRANCH  12  16
ATOM     16  CA  ASP A   1      -2.851  -5.447 -23.274  0.00  0.00    +0.156 C 
BRANCH  16  17
ATOM     17  N   ASP A   1      -3.692  -4.246 -23.283  0.00  0.00    -0.238 NA
ATOM     18  H   ASP A   1      -3.533  -3.524 -24.015  0.00  0.00    +0.142 HD
ENDBRANCH  16  17
BRANCH  16  19
ATOM     19  CB  ASP A   1      -2.491  -5.888 -24.699  0.00  0.00    +0.140 C 
BRANCH  19  20
ATOM     20  CG  ASP A   1      -1.371  -5.088 -25.300  0.00  0.00    +0.367 C 
ATOM     21  OD2 ASP A   1      -1.534  -3.854 -25.449  0.00  0.00    -0.246 OA
ATOM     22  OD1 ASP A   1      -0.306  -5.672 -25.549  0.00  0.00    -0.246 OA
ENDBRANCH  19  20
ENDBRANCH  16  19
ENDBRANCH  12  16
ENDBRANCH  11  14
BRANCH  11  23
ATOM     23  CB  LEU A   2       0.756  -2.573 -21.674  0.00  0.00    +0.029 C 
BRANCH  23  24
ATOM     24  CG  LEU A   2       2.128  -2.808 -22.340  0.00  0.00    +0.002 C 
ATOM     25  CD2 LEU A   2       2.233  -4.123 -23.043  0.00  0.00    +0.000 C 
ATOM     26  CD1 LEU A   2       2.467  -1.689 -23.253  0.00  0.00    +0.000 C 
ENDBRANCH  23  24
ENDBRANCH  11  23
ENDBRANCH   7  11
ENDBRANCH   6   8
BRANCH   6  27
ATOM     27  CB  LEU A   3      -1.233  -5.535 -16.854  0.00  0.00    +0.029 C 
BRANCH  27  28
ATOM     28  CG  LEU A   3      -2.294  -6.512 -17.436  0.00  0.00    +0.002 C 
ATOM     29  CD2 LEU A   3      -3.467  -5.800 -18.151  0.00  0.00    +0.000 C 
ATOM     30  CD1 LEU A   3      -1.667  -7.560 -18.297  0.00  0.00    +0.000 C 
ENDBRANCH  27  28
ENDBRANCH   6  27
ENDBRANCH   2   6
ENDBRANCH   1   3
BRANCH   1  31
ATOM     31  C   GLN A   4       0.931  -2.783 -13.737  0.00  0.00    +0.241 C 
ATOM     32  O   GLN A   4       0.413  -3.818 -13.297  0.00  0.00    -0.273 OA
ATOM     33  N   LYS A   5       2.214  -2.447 -13.518  0.00  0.00    -0.297 N 
ATOM     34  H   LYS A   5       2.586  -1.597 -13.988  0.00  0.00    +0.150 HD
BRANCH  33  35
ATOM     35  CA  LYS A   5       3.117  -3.209 -12.656  0.00  0.00    +0.149 C 
BRANCH  35  36
ATOM     36  C   LYS A   5       3.990  -2.220 -11.904  0.00  0.00    +0.241 C 
ATOM     37  N   THR A   6       4.721  -2.709 -10.920  0.00  0.00    -0.295 N 
ATOM     38  H   THR A   6       4.660  -3.726 -10.711  0.00  0.00    +0.150 HD
ATOM     39  O   LYS A   5       3.955  -1.019 -12.180  0.00  0.00    -0.273 OA
BRANCH  37  40
ATOM     40  CA  THR A   6       5.610  -1.884 -10.114  0.00  0.00    +0.176 C 
BRANCH  40  41
ATOM     41  C   THR A   6       6.998  -2.479 -10.152  0.00  0.00    +0.243 C 
ATOM     42  O   THR A   6       7.170  -3.679  -9.903  0.00  0.00    -0.273 OA
ATOM     43  N   LYS A   7       7.979  -1.639 -10.432  0.00  0.00    -0.298 N 
ATOM     44  H   LYS A   7       7.751  -0.650 -10.658  0.00  0.00    +0.150 HD
BRANCH  43  45
ATOM     45  CA  LYS A   7       9.379  -2.066 -10.432  0.00  0.00    +0.137 C 
BRANCH  45  46
ATOM     46  C   LYS A   7      10.039  -1.625  -9.138  0.00  0.00    +0.227 C 
ATOM     47  O   LYS A   7       9.995  -0.447  -8.802  0.00  0.00    -0.286 OA
ENDBRANCH  45  46
BRANCH  45  48
ATOM     48  CB  LYS A   7      10.140  -1.538 -11.651  0.00  0.00    +0.028 C 
BRANCH  48  49
ATOM     49  CG  LYS A   7      11.628  -1.940 -11.628  0.00  0.00    -0.000 C 
BRANCH  49  50
ATOM     50  CD  LYS A   7      12.464  -1.245 -12.719  0.00  0.00    -0.024 C 
BRANCH  50  51
ATOM     51  CE  LYS A   7      12.304  -1.872 -14.077  0.00  0.00    -0.086 C 
BRANCH  51  52
ATOM     52  NZ  LYS A   7      13.100  -1.120 -15.094  0.00  0.00    +0.380 N 
ATOM     53  HZ1 LYS A   7      14.105  -1.138 -14.828  0.00  0.00    -0.089 HD
ATOM     54  HZ2 LYS A   7      12.768  -0.135 -15.133  0.00  0.00    -0.089 HD
ATOM     55  HZ3 LYS A   7      12.979  -1.565 -16.026  0.00  0.00    -0.089 HD
ENDBRANCH  51  52
ENDBRANCH  50  51
ENDBRANCH  49  50
ENDBRANCH  48  49
ENDBRANCH  45  48
ENDBRANCH  43  45
ENDBRANCH  40  41
BRANCH  40  56
ATOM     56  CB  THR A   6       5.064  -1.731  -8.679  0.00  0.00    +0.137 C 
ATOM     57  CG2 THR A   6       5.988  -0.903  -7.781  0.00  0.00    +0.034 C 
BRANCH  56  58
ATOM     58  OG1 THR A   6       3.815  -1.070  -8.780  0.00  0.00    -0.382 OA
ATOM     59  HG1 THR A   6       3.945  -0.184  -9.202  0.00  0.00    +0.210 HD
ENDBRANCH  56  58
ENDBRANCH  40  56
ENDBRANCH  37  40
ENDBRANCH  35  36
BRANCH  35  60
ATOM     60  CB  LYS A   5       4.009  -4.201 -13.469  0.00  0.00    +0.029 C 
BRANCH  60  61
ATOM     61  CG  LYS A   5       3.268  -5.267 -14.288  0.00  0.00    +0.000 C 
BRANCH  61  62
ATOM     62  CD  LYS A   5       2.654  -6.378 -13.465  0.00  0.00    -0.024 C 
BRANCH  62  63
ATOM     63  CE  LYS A   5       1.704  -7.230 -14.288  0.00  0.00    -0.086 C 
BRANCH  63  64
ATOM     64  NZ  LYS A   5       1.045  -8.282 -13.457  0.00  0.00    +0.380 N 
ATOM     65  HZ1 LYS A   5       0.502  -7.830 -12.694  0.00  0.00    -0.089 HD
ATOM     66  HZ2 LYS A   5       1.771  -8.903 -13.047  0.00  0.00    -0.089 HD
ATOM     67  HZ3 LYS A   5       0.404  -8.843 -14.054  0.00  0.00    -0.089 HD
ENDBRANCH  63  64
ENDBRANCH  62  63
ENDBRANCH  61  62
ENDBRANCH  60  61
ENDBRANCH  35  60
ENDBRANCH  33  35
ENDBRANCH   1  31
BRANCH   1  68
ATOM     68  CB  GLN A   4      -0.758  -0.984 -13.771  0.00  0.00    +0.039 C 
BRANCH  68  69
ATOM     69  CG  GLN A   4      -1.191   0.288 -14.456  0.00  0.00    +0.087 C 
BRANCH  69  70
ATOM     70  CD  GLN A   4      -2.063   1.107 -13.547  0.00  0.00    +0.219 C 
ATOM     71  OE1 GLN A   4      -3.098   0.641 -13.048  0.00  0.00    -0.275 OA
ATOM     72  NE2 GLN A   4      -1.673   2.355 -13.320  0.00  0.00    -0.329 N 
ATOM     73 HE21 GLN A   4      -2.241   2.974 -12.707  0.00  0.00    +0.145 HD
ATOM     74 HE22 GLN A   4      -0.799   2.714 -13.755  0.00  0.00    +0.145 HD
ENDBRANCH  69  70
ENDBRANCH  68  69
ENDBRANCH   1  68
TORSDOF 35
REMARK  Name = ../refined-set-2016/3ta1/3ta1_pocket.pdb
REMARK  221 active torsions:
REMARK  status: ('A' for Active; 'I' for Inactive)
REMARK    1  A    between atoms: _1  and  _3
REMARK    2  A    between atoms: _3  and  _4
REMARK    3  A    between atoms: _7  and  _9
REMARK    4  A    between atoms: _9  and  _10
REMARK    5  A    between atoms: _9  and  _12
REMARK    6  A    between atoms: _15  and  _17
REMARK    7  A    between atoms: _17  and  _18
REMARK    8  A    between atoms: _17  and  _20
REMARK    9  A    between atoms: _20  and  _21
REMARK   10  A    between atoms: _24  and  _26
REMARK   11  A    between atoms: _26  and  _27
REMARK   12  A    between atoms: _26  and  _29
REMARK   13  A    between atoms: _29  and  _30
REMARK   14  A    between atoms: _30  and  _31
REMARK   15  A    between atoms: _31  and  _32
REMARK   16  A    between atoms: _41  and  _43
REMARK   17  A    between atoms: _43  and  _44
REMARK   18  A    between atoms: _43  and  _46
REMARK   19  A    between atoms: _49  and  _51
REMARK   20  A    between atoms: _51  and  _52
REMARK   21  A    between atoms: _51  and  _54
REMARK   22  A    between atoms: _54  and  _55
REMARK   23  A    between atoms: _55  and  _56
REMARK   24  A    between atoms: _56  and  _57
REMARK   25  A    between atoms: _57  and  _58
REMARK   26  A    between atoms: _62  and  _64
REMARK   27  A    between atoms: _64  and  _65
REMARK   28  A    between atoms: _67  and  _69
REMARK   29  A    between atoms: _69  and  _70
REMARK   30  A    between atoms: _69  and  _72
REMARK   31  A    between atoms: _72  and  _73
REMARK   32  A    between atoms: _73  and  _74
REMARK   33  A    between atoms: _74  and  _75
REMARK   34  A    between atoms: _84  and  _86
REMARK   35  A    between atoms: _86  and  _87
REMARK   36  A    between atoms: _89  and  _91
REMARK   37  A    between atoms: _91  and  _92
REMARK   38  A    between atoms: _91  and  _94
REMARK   39  A    between atoms: _94  and  _95
REMARK   40  A    between atoms: _95  and  _96
REMARK   41  A    between atoms: _99  and  _101
REMARK   42  A    between atoms: _101  and  _102
REMARK   43  A    between atoms: _101  and  _104
REMARK   44  A    between atoms: _104  and  _105
REMARK   45  A    between atoms: _105  and  _106
REMARK   46  A    between atoms: _111  and  _113
REMARK   47  A    between atoms: _113  and  _114
REMARK   48  A    between atoms: _113  and  _116
REMARK   49  A    between atoms: _116  and  _117
REMARK   50  A    between atoms: _117  and  _118
REMARK   51  A    between atoms: _118  and  _119
REMARK   52  A    between atoms: _119  and  _120
REMARK   53  A    between atoms: _124  and  _126
REMARK   54  A    between atoms: _126  and  _127
REMARK   55  A    between atoms: _126  and  _129
REMARK   56  A    between atoms: _129  and  _130
REMARK   57  A    between atoms: _133  and  _135
REMARK   58  A    between atoms: _135  and  _136
REMARK   59  A    between atoms: _135  and  _138
REMARK   60  A    between atoms: _138  and  _139
REMARK   61  A    between atoms: _142  and  _144
REMARK   62  A    between atoms: _144  and  _145
REMARK   63  A    between atoms: _144  and  _147
REMARK   64  A    between atoms: _147  and  _148
REMARK   65  A    between atoms: _151  and  _153
REMARK   66  A    between atoms: _153  and  _154
REMARK   67  A    between atoms: _153  and  _156
REMARK   68  A    between atoms: _156  and  _157
REMARK   69  A    between atoms: _157  and  _158
REMARK   70  A    between atoms: _163  and  _165
REMARK   71  A    between atoms: _165  and  _166
REMARK   72  A    between atoms: _165  and  _168
REMARK   73  A    between atoms: _168  and  _169
REMARK   74  A    between atoms: _169  and  _170
REMARK   75  A    between atoms: _170  and  _171
REMARK   76  A    between atoms: _171  and  _172
REMARK   77  A    between atoms: _176  and  _178
REMARK   78  A    between atoms: _178  and  _179
REMARK   79  A    between atoms: _178  and  _181
REMARK   80  A    between atoms: _181  and  _182
REMARK   81  A    between atoms: _185  and  _187
REMARK   82  A    between atoms: _187  and  _188
REMARK   83  A    between atoms: _187  and  _190
REMARK   84  A    between atoms: _190  and  _191
REMARK   85  A    between atoms: _191  and  _192
REMARK   86  A    between atoms: _192  and  _193
REMARK   87  A    between atoms: _193  and  _194
REMARK   88  A    between atoms: _198  and  _200
REMARK   89  A    between atoms: _200  and  _201
REMARK   90  A    between atoms: _200  and  _203
REMARK   91  A    between atoms: _203  and  _204
REMARK   92  A    between atoms: _207  and  _209
REMARK   93  A    between atoms: _209  and  _210
REMARK   94  A    between atoms: _212  and  _214
REMARK   95  A    between atoms: _214  and  _215
REMARK   96  A    between atoms: _214  and  _217
REMARK   97  A    between atoms: _217  and  _218
REMARK   98  A    between atoms: _218  and  _219
REMARK   99  A    between atoms: _219  and  _220
REMARK  100  A    between atoms: _220  and  _221
REMARK  101  A    between atoms: _225  and  _227
REMARK  102  A    between atoms: _227  and  _228
REMARK  103  A    between atoms: _227  and  _230
REMARK  104  A    between atoms: _230  and  _231
REMARK  105  A    between atoms: _237  and  _239
REMARK  106  A    between atoms: _239  and  _240
REMARK  107  A    between atoms: _242  and  _244
REMARK  108  A    between atoms: _244  and  _245
REMARK  109  A    between atoms: _244  and  _247
REMARK  110  A    between atoms: _247  and  _248
REMARK  111  A    between atoms: _251  and  _253
REMARK  112  A    between atoms: _253  and  _254
REMARK  113  A    between atoms: _256  and  _258
REMARK  114  A    between atoms: _258  and  _259
REMARK  115  A    between atoms: _258  and  _261
REMARK  116  A    between atoms: _261  and  _262
REMARK  117  A    between atoms: _262  and  _263
REMARK  118  A    between atoms: _263  and  _264
REMARK  119  A    between atoms: _273  and  _275
REMARK  120  A    between atoms: _275  and  _276
REMARK  121  A    between atoms: _275  and  _278
REMARK  122  A    between atoms: _278  and  _279
REMARK  123  A    between atoms: _282  and  _284
REMARK  124  A    between atoms: _284  and  _285
REMARK  125  A    between atoms: _284  and  _287
REMARK  126  A    between atoms: _287  and  _288
REMARK  127  A    between atoms: _294  and  _298
REMARK  128  A    between atoms: _298  and  _299
REMARK  129  A    between atoms: _298  and  _301
REMARK  130  A    between atoms: _301  and  _302
REMARK  131  A    between atoms: _302  and  _303
REMARK  132  A    between atoms: _305  and  _307
REMARK  133  A    between atoms: _307  and  _308
REMARK  134  A    between atoms: _307  and  _310
REMARK  135  A    between atoms: _310  and  _311
REMARK  136  A    between atoms: _311  and  _312
REMARK  137  A    between atoms: _312  and  _313
REMARK  138  A    between atoms: _313  and  _314
REMARK  139  A    between atoms: _318  and  _320
REMARK  140  A    between atoms: _320  and  _321
REMARK  141  A    between atoms: _320  and  _323
REMARK  142  A    between atoms: _323  and  _324
REMARK  143  A    between atoms: _324  and  _325
REMARK  144  A    between atoms: _327  and  _329
REMARK  145  A    between atoms: _329  and  _330
REMARK  146  A    between atoms: _329  and  _332
REMARK  147  A    between atoms: _335  and  _337
REMARK  148  A    between atoms: _337  and  _338
REMARK  149  A    between atoms: _337  and  _340
REMARK  150  A    between atoms: _340  and  _341
REMARK  151  A    between atoms: _347  and  _349
REMARK  152  A    between atoms: _349  and  _350
REMARK  153  A    between atoms: _349  and  _352
REMARK  154  A    between atoms: _355  and  _357
REMARK  155  A    between atoms: _357  and  _358
REMARK  156  A    between atoms: _360  and  _362
REMARK  157  A    between atoms: _362  and  _363
REMARK  158  A    between atoms: _362  and  _365
REMARK  159  A    between atoms: _365  and  _366
REMARK  160  A    between atoms: _366  and  _367
REMARK  161  A    between atoms: _369  and  _371
REMARK  162  A    between atoms: _371  and  _372
REMARK  163  A    between atoms: _371  and  _374
REMARK  164  A    between atoms: _374  and  _375
REMARK  165  A    between atoms: _378  and  _380
REMARK  166  A    between atoms: _380  and  _381
REMARK  167  A    between atoms: _380  and  _383
REMARK  168  A    between atoms: _386  and  _388
REMARK  169  A    between atoms: _388  and  _389
REMARK  170  A    between atoms: _388  and  _391
REMARK  171  A    between atoms: _394  and  _396
REMARK  172  A    between atoms: _396  and  _397
REMARK  173  A    between atoms: _396  and  _399
REMARK  174  A    between atoms: _399  and  _400
REMARK  175  A    between atoms: _400  and  _401
REMARK  176  A    between atoms: _404  and  _406
REMARK  177  A    between atoms: _406  and  _407
REMARK  178  A    between atoms: _406  and  _409
REMARK  179  A    between atoms: _412  and  _414
REMARK  180  A    between atoms: _414  and  _415
REMARK  181  A    between atoms: _414  and  _417
REMARK  182  A    between atoms: _420  and  _422
REMARK  183  A    between atoms: _422  and  _423
REMARK  184  A    between atoms: _422  and  _425
REMARK  185  A    between atoms: _428  and  _430
REMARK  186  A    between atoms: _430  and  _431
REMARK  187  A    between atoms: _430  and  _433
REMARK  188  A    between atoms: _433  and  _434
REMARK  189  A    between atoms: _436  and  _438
REMARK  190  A    between atoms: _438  and  _439
REMARK  191  A    between atoms: _438  and  _441
REMARK  192  A    between atoms: _441  and  _442
REMARK  193  A    between atoms: _444  and  _446
REMARK  194  A    between atoms: _446  and  _447
REMARK  195  A    between atoms: _446  and  _449
REMARK  196  A    between atoms: _452  and  _454
REMARK  197  A    between atoms: _454  and  _455
REMARK  198  A    between atoms: _454  and  _457
REMARK  199  A    between atoms: _457  and  _458
REMARK  200  A    between atoms: _458  and  _459
REMARK  201  A    between atoms: _459  and  _460
REMARK  202  A    between atoms: _460  and  _461
REMARK  203  A    between atoms: _465  and  _467
REMARK  204  A    between atoms: _467  and  _468
REMARK  205  A    between atoms: _467  and  _470
REMARK  206  A    between atoms: _470  and  _471
REMARK  207  A    between atoms: _474  and  _476
REMARK  208  A    between atoms: _476  and  _477
REMARK  209  A    between atoms: _476  and  _479
REMARK  210  A    between atoms: _479  and  _480
REMARK  211  A    between atoms: _480  and  _481
REMARK  212  A    between atoms: _481  and  _482
REMARK  213  A    between atoms: _491  and  _493
REMARK  214  A    between atoms: _493  and  _494
REMARK  215  A    between atoms: _493  and  _496
REMARK  216  A    between atoms: _496  and  _497
REMARK  217  A    between atoms: _500  and  _502
REMARK  218  A    between atoms: _502  and  _503
REMARK  219  A    between atoms: _502  and  _505
REMARK  220  A    between atoms: _505  and  _506
REMARK  221  A    between atoms: _506  and  _507
REMARK                            x       y       z     vdW  Elec       q    Type
REMARK                         _______ _______ _______ _____ _____    ______ ____
ROOT
ATOM      1  CA  ASP A   6       3.144 -12.318 -10.294  0.00  0.00    +0.160 C 
ENDROOT
BRANCH   1   3
ATOM      2  C   GLY A   5       1.928 -11.703 -12.372  0.00  0.00    +0.243 C 
ATOM      3  N   ASP A   6       2.408 -12.646 -11.531  0.00  0.00    -0.296 N 
ATOM      4  H   ASP A   6       2.252 -13.647 -11.766  0.00  0.00    +0.150 HD
ATOM      5  O   GLY A   5       2.038 -10.492 -12.159  0.00  0.00    -0.273 OA
BRANCH   2   6
ATOM      6  CA  GLY A   5       1.220 -12.175 -13.627  0.00  0.00    +0.176 C 
BRANCH   6   9
ATOM      7  C   PHE A   4      -0.073 -14.262 -13.656  0.00  0.00    +0.241 C 
ATOM      8  O   PHE A   4      -1.137 -13.708 -13.370  0.00  0.00    -0.273 OA
ATOM      9  N   GLY A   5       1.095 -13.622 -13.759  0.00  0.00    -0.295 N 
ATOM     10  H   GLY A   5       1.953 -14.180 -13.941  0.00  0.00    +0.150 HD
BRANCH   7  11
ATOM     11  CA  PHE A   4      -0.031 -15.773 -13.830  0.00  0.00    +0.153 C 
BRANCH  11  14
ATOM     12  C   LYS A   3      -0.436 -16.215 -11.425  0.00  0.00    +0.241 C 
ATOM     13  O   LYS A   3       0.531 -15.562 -11.055  0.00  0.00    -0.273 OA
ATOM     14  N   PHE A   4      -0.755 -16.389 -12.717  0.00  0.00    -0.297 N 
ATOM     15  H   PHE A   4      -1.567 -16.999 -12.941  0.00  0.00    +0.150 HD
BRANCH  12  16
ATOM     16  CA  LYS A   3      -1.358 -16.863 -10.386  0.00  0.00    +0.149 C 
BRANCH  16  18
ATOM     17  C   GLY A   2      -0.143 -18.295  -8.790  0.00  0.00    +0.243 C 
ATOM     18  N   LYS A   3      -0.643 -17.105  -9.132  0.00  0.00    -0.297 N 
ATOM     19  H   LYS A   3      -0.518 -16.310  -8.474  0.00  0.00    +0.150 HD
ATOM     20  O   GLY A   2      -0.246 -19.290  -9.509  0.00  0.00    -0.273 OA
BRANCH  17  21
ATOM     21  CA  GLY A   2       0.575 -18.370  -7.458  0.00  0.00    +0.176 C 
BRANCH  21  24
ATOM     22  C   THR A   1      -0.219 -16.665  -5.842  0.00  0.00    +0.241 C 
ATOM     23  O   THR A   1      -1.124 -17.360  -5.405  0.00  0.00    -0.274 OA
ATOM     24  N   GLY A   2       0.631 -17.069  -6.794  0.00  0.00    -0.295 N 
ATOM     25  H   GLY A   2       1.384 -16.411  -7.081  0.00  0.00    +0.150 HD
BRANCH  22  26
ATOM     26  CA  THR A   1      -0.038 -15.227  -5.324  0.00  0.00    +0.172 C 
BRANCH  26  27
ATOM     27  N   THR A   1       1.389 -14.877  -5.469  0.00  0.00    -0.236 NA
ATOM     28  H   THR A   1       1.824 -15.015  -6.403  0.00  0.00    +0.142 HD
ENDBRANCH  26  27
BRANCH  26  29
ATOM     29  CB  THR A   1      -0.971 -14.284  -6.111  0.00  0.00    +0.135 C 
ATOM     30  CG2 THR A   1      -0.771 -12.800  -5.793  0.00  0.00    +0.034 C 
BRANCH  29  31
ATOM     31  OG1 THR A   1      -0.833 -14.537  -7.509  0.00  0.00    -0.383 OA
ATOM     32  HG1 THR A   1       0.105 -14.377  -7.781  0.00  0.00    +0.210 HD
ENDBRANCH  29  31
ENDBRANCH  26  29
ENDBRANCH  22  26
ENDBRANCH  21  24
ENDBRANCH  17  21
ENDBRANCH  16  18
BRANCH  16  33
ATOM     33  CB  LYS A   3      -2.570 -15.947 -10.141  0.00  0.00    +0.029 C 
BRANCH  33  34
ATOM     34  CG  LYS A   3      -3.718 -16.576  -9.319  0.00  0.00    +0.000 C 
BRANCH  34  35
ATOM     35  CD  LYS A   3      -4.529 -17.708 -10.032  0.00  0.00    -0.024 C 
BRANCH  35  36
ATOM     36  CE  LYS A   3      -5.191 -17.367 -11.365  0.00  0.00    -0.086 C 
BRANCH  36  37
ATOM     37  NZ  LYS A   3      -4.302 -17.663 -12.529  0.00  0.00    +0.380 N 
ATOM     38  HZ1 LYS A   3      -3.429 -17.103 -12.448  0.00  0.00    -0.089 HD
ATOM     39  HZ2 LYS A   3      -4.066 -18.676 -12.535  0.00  0.00    -0.089 HD
ATOM     40  HZ3 LYS A   3      -4.794 -17.416 -13.411  0.00  0.00    -0.089 HD
ENDBRANCH  36  37
ENDBRANCH  35  36
ENDBRANCH  34  35
ENDBRANCH  33  34
ENDBRANCH  16  33
ENDBRANCH  12  16
ENDBRANCH  11  14
BRANCH  11  41
ATOM     41  CB  PHE A   4      -0.653 -16.180 -15.192  0.00  0.00    +0.055 C 
BRANCH  41  42
ATOM     42  CG  PHE A   4      -0.725 -17.677 -15.430  0.00  0.00    -0.020 A 
ATOM     43  CD2 PHE A   4      -1.950 -18.332 -15.480  0.00  0.00    -0.004 A 
ATOM     44  CE2 PHE A   4      -2.016 -19.722 -15.670  0.00  0.00    -0.000 A 
ATOM     45  CZ  PHE A   4      -0.855 -20.453 -15.815  0.00  0.00    -0.000 A 
ATOM     46  CE1 PHE A   4       0.367 -19.818 -15.764  0.00  0.00    -0.000 A 
ATOM     47  CD1 PHE A   4       0.432 -18.433 -15.574  0.00  0.00    -0.004 A 
ENDBRANCH  41  42
ENDBRANCH  11  41
ENDBRANCH   7  11
ENDBRANCH   6   9
ENDBRANCH   2   6
ENDBRANCH   1   3
BRANCH   1  48
ATOM     48  C   ASP A   6       4.412 -11.504 -10.555  0.00  0.00    +0.241 C 
ATOM     49  O   ASP A   6       4.811 -10.690  -9.728  0.00  0.00    -0.273 OA
ATOM     50  N   GLY A   7       5.054 -11.756 -11.693  0.00  0.00    -0.295 N 
ATOM     51  H   GLY A   7       4.708 -12.509 -12.321  0.00  0.00    +0.150 HD
BRANCH  50  52
ATOM     52  CA  GLY A   7       6.231 -10.994 -12.071  0.00  0.00    +0.176 C 
BRANCH  52  53
ATOM     53  C   GLY A   7       7.542 -11.735 -11.987  0.00  0.00    +0.243 C 
ATOM     54  O   GLY A   7       7.586 -12.967 -11.825  0.00  0.00    -0.273 OA
ATOM     55  N   ARG A   8       8.620 -10.965 -12.138  0.00  0.00    -0.297 N 
ATOM     56  H   ARG A   8       8.483  -9.935 -12.191  0.00  0.00    +0.150 HD
BRANCH  55  57
ATOM     57  CA  ARG A   8       9.968 -11.478 -12.232  0.00  0.00    +0.149 C 
BRANCH  57  58
ATOM     58  C   ARG A   8      10.925 -10.719 -11.369  0.00  0.00    +0.241 C 
ATOM     59  O   ARG A   8      10.691  -9.541 -11.042  0.00  0.00    -0.273 OA
ATOM     60  N   ILE A   9      12.041 -11.377 -11.059  0.00  0.00    -0.297 N 
ATOM     61  H   ILE A   9      12.117 -12.377 -11.333  0.00  0.00    +0.150 HD
BRANCH  60  62
ATOM     62  CA  ILE A   9      13.161 -10.766 -10.355  0.00  0.00    +0.149 C 
BRANCH  62  63
ATOM     63  C   ILE A   9      14.408 -10.989 -11.246  0.00  0.00    +0.241 C 
ATOM     64  N   PHE A  10      15.095  -9.921 -11.577  0.00  0.00    -0.298 N 
ATOM     65  H   PHE A  10      14.756  -8.994 -11.250  0.00  0.00    +0.150 HD
ATOM     66  O   ILE A   9      14.736 -12.126 -11.589  0.00  0.00    -0.273 OA
BRANCH  64  67
ATOM     67  CA  PHE A  10      16.322  -9.971 -12.389  0.00  0.00    +0.141 C 
BRANCH  67  68
ATOM     68  C   PHE A  10      17.464  -9.461 -11.534  0.00  0.00    +0.227 C 
ATOM     69  O   PHE A  10      17.331  -8.407 -10.901  0.00  0.00    -0.286 OA
ENDBRANCH  67  68
BRANCH  67  70
ATOM     70  CB  PHE A  10      16.177  -9.117 -13.660  0.00  0.00    +0.054 C 
BRANCH  70  71
ATOM     71  CG  PHE A  10      14.919  -9.396 -14.451  0.00  0.00    -0.020 A 
ATOM     72  CD2 PHE A  10      14.016  -8.377 -14.741  0.00  0.00    -0.004 A 
ATOM     73  CE2 PHE A  10      12.849  -8.639 -15.483  0.00  0.00    -0.000 A 
ATOM     74  CZ  PHE A  10      12.605  -9.904 -15.960  0.00  0.00    -0.000 A 
ATOM     75  CE1 PHE A  10      13.502 -10.919 -15.707  0.00  0.00    -0.000 A 
ATOM     76  CD1 PHE A  10      14.662 -10.667 -14.956  0.00  0.00    -0.004 A 
ENDBRANCH  70  71
ENDBRANCH  67  70
ENDBRANCH  64  67
ENDBRANCH  62  63
BRANCH  62  77
ATOM     77  CB  ILE A   9      13.395 -11.297  -8.937  0.00  0.00    +0.027 C 
ATOM     78  CG2 ILE A   9      14.568 -10.538  -8.277  0.00  0.00    +0.002 C 
BRANCH  77  79
ATOM     79  CG1 ILE A   9      12.112 -11.233  -8.070  0.00  0.00    +0.002 C 
ATOM     80  CD1 ILE A   9      12.253 -11.982  -6.740  0.00  0.00    +0.000 C 
ENDBRANCH  77  79
ENDBRANCH  62  77
ENDBRANCH  60  62
ENDBRANCH  57  58
BRANCH  57  81
ATOM     81  CB  ARG A   8      10.475 -11.369 -13.703  0.00  0.00    +0.033 C 
BRANCH  81  82
ATOM     82  CG  ARG A   8       9.532 -11.924 -14.802  0.00  0.00    +0.045 C 
BRANCH  82  83
ATOM     83  CD  ARG A   8       9.286 -13.422 -14.669  0.00  0.00    +0.174 C 
BRANCH  83  84
ATOM     84  NE  ARG A   8       8.243 -13.891 -15.596  0.00  0.00    -0.265 N 
ATOM     85  HE  ARG A   8       7.251 -13.844 -15.287  0.00  0.00    +0.259 HD
ATOM     86  CZ  ARG A   8       8.504 -14.371 -16.807  0.00  0.00    +0.342 C 
ATOM     87  NH2 ARG A   8       9.755 -14.457 -17.237  0.00  0.00    -0.292 N 
ATOM     88 HH21 ARG A   8      10.537 -14.148 -16.626  0.00  0.00    +0.255 HD
ATOM     89 HH22 ARG A   8       9.954 -14.833 -18.186  0.00  0.00    +0.255 HD
ATOM     90  NH1 ARG A   8       7.512 -14.768 -17.601  0.00  0.00    -0.292 N 
ATOM     91 HH11 ARG A   8       6.527 -14.703 -17.274  0.00  0.00    +0.255 HD
ATOM     92 HH12 ARG A   8       7.722 -15.143 -18.548  0.00  0.00    +0.255 HD
ENDBRANCH  83  84
ENDBRANCH  82  83
ENDBRANCH  81  82
ENDBRANCH  57  81
ENDBRANCH  55  57
ENDBRANCH  52  53
ENDBRANCH  50  52
ENDBRANCH   1  48
BRANCH   1  93
ATOM     93  CB  ASP A   6       3.484 -13.578  -9.496  0.00  0.00    +0.143 C 
BRANCH  93  94
ATOM     94  CG  ASP A   6       2.339 -14.137  -8.661  0.00  0.00    +0.367 C 
ATOM     95  OD2 ASP A   6       2.537 -15.172  -8.023  0.00  0.00    -0.246 OA
ATOM     96  OD1 ASP A   6       1.234 -13.549  -8.689  0.00  0.00    -0.246 OA
ENDBRANCH  93  94
ENDBRANCH   1  93
TORSDOF 39
REMARK  Name = ../refined-set-2016/3ta1/3ta1_pocket.pdb
REMARK  221 active torsions:
REMARK  status: ('A' for Active; 'I' for Inactive)
REMARK    1  A    between atoms: _1  and  _3
REMARK    2  A    between atoms: _3  and  _4
REMARK    3  A    between atoms: _7  and  _9
REMARK    4  A    between atoms: _9  and  _10
REMARK    5  A    between atoms: _9  and  _12
REMARK    6  A    between atoms: _15  and  _17
REMARK    7  A    between atoms: _17  and  _18
REMARK    8  A    between atoms: _17  and  _20
REMARK    9  A    between atoms: _20  and  _21
REMARK   10  A    between atoms: _24  and  _26
REMARK   11  A    between atoms: _26  and  _27
REMARK   12  A    between atoms: _26  and  _29
REMARK   13  A    between atoms: _29  and  _30
REMARK   14  A    between atoms: _30  and  _31
REMARK   15  A    between atoms: _31  and  _32
REMARK   16  A    between atoms: _41  and  _43
REMARK   17  A    between atoms: _43  and  _44
REMARK   18  A    between atoms: _43  and  _46
REMARK   19  A    between atoms: _49  and  _51
REMARK   20  A    between atoms: _51  and  _52
REMARK   21  A    between atoms: _51  and  _54
REMARK   22  A    between atoms: _54  and  _55
REMARK   23  A    between atoms: _55  and  _56
REMARK   24  A    between atoms: _56  and  _57
REMARK   25  A    between atoms: _57  and  _58
REMARK   26  A    between atoms: _62  and  _64
REMARK   27  A    between atoms: _64  and  _65
REMARK   28  A    between atoms: _67  and  _69
REMARK   29  A    between atoms: _69  and  _70
REMARK   30  A    between atoms: _69  and  _72
REMARK   31  A    between atoms: _72  and  _73
REMARK   32  A    between atoms: _73  and  _74
REMARK   33  A    between atoms: _74  and  _75
REMARK   34  A    between atoms: _84  and  _86
REMARK   35  A    between atoms: _86  and  _87
REMARK   36  A    between atoms: _89  and  _91
REMARK   37  A    between atoms: _91  and  _92
REMARK   38  A    between atoms: _91  and  _94
REMARK   39  A    between atoms: _94  and  _95
REMARK   40  A    between atoms: _95  and  _96
REMARK   41  A    between atoms: _99  and  _101
REMARK   42  A    between atoms: _101  and  _102
REMARK   43  A    between atoms: _101  and  _104
REMARK   44  A    between atoms: _104  and  _105
REMARK   45  A    between atoms: _105  and  _106
REMARK   46  A    between atoms: _111  and  _113
REMARK   47  A    between atoms: _113  and  _114
REMARK   48  A    between atoms: _113  and  _116
REMARK   49  A    between atoms: _116  and  _117
REMARK   50  A    between atoms: _117  and  _118
REMARK   51  A    between atoms: _118  and  _119
REMARK   52  A    between atoms: _119  and  _120
REMARK   53  A    between atoms: _124  and  _126
REMARK   54  A    between atoms: _126  and  _127
REMARK   55  A    between atoms: _126  and  _129
REMARK   56  A    between atoms: _129  and  _130
REMARK   57  A    between atoms: _133  and  _135
REMARK   58  A    between atoms: _135  and  _136
REMARK   59  A    between atoms: _135  and  _138
REMARK   60  A    between atoms: _138  and  _139
REMARK   61  A    between atoms: _142  and  _144
REMARK   62  A    between atoms: _144  and  _145
REMARK   63  A    between atoms: _144  and  _147
REMARK   64  A    between atoms: _147  and  _148
REMARK   65  A    between atoms: _151  and  _153
REMARK   66  A    between atoms: _153  and  _154
REMARK   67  A    between atoms: _153  and  _156
REMARK   68  A    between atoms: _156  and  _157
REMARK   69  A    between atoms: _157  and  _158
REMARK   70  A    between atoms: _163  and  _165
REMARK   71  A    between atoms: _165  and  _166
REMARK   72  A    between atoms: _165  and  _168
REMARK   73  A    between atoms: _168  and  _169
REMARK   74  A    between atoms: _169  and  _170
REMARK   75  A    between atoms: _170  and  _171
REMARK   76  A    between atoms: _171  and  _172
REMARK   77  A    between atoms: _176  and  _178
REMARK   78  A    between atoms: _178  and  _179
REMARK   79  A    between atoms: _178  and  _181
REMARK   80  A    between atoms: _181  and  _182
REMARK   81  A    between atoms: _185  and  _187
REMARK   82  A    between atoms: _187  and  _188
REMARK   83  A    between atoms: _187  and  _190
REMARK   84  A    between atoms: _190  and  _191
REMARK   85  A    between atoms: _191  and  _192
REMARK   86  A    between atoms: _192  and  _193
REMARK   87  A    between atoms: _193  and  _194
REMARK   88  A    between atoms: _198  and  _200
REMARK   89  A    between atoms: _200  and  _201
REMARK   90  A    between atoms: _200  and  _203
REMARK   91  A    between atoms: _203  and  _204
REMARK   92  A    between atoms: _207  and  _209
REMARK   93  A    between atoms: _209  and  _210
REMARK   94  A    between atoms: _212  and  _214
REMARK   95  A    between atoms: _214  and  _215
REMARK   96  A    between atoms: _214  and  _217
REMARK   97  A    between atoms: _217  and  _218
REMARK   98  A    between atoms: _218  and  _219
REMARK   99  A    between atoms: _219  and  _220
REMARK  100  A    between atoms: _220  and  _221
REMARK  101  A    between atoms: _225  and  _227
REMARK  102  A    between atoms: _227  and  _228
REMARK  103  A    between atoms: _227  and  _230
REMARK  104  A    between atoms: _230  and  _231
REMARK  105  A    between atoms: _237  and  _239
REMARK  106  A    between atoms: _239  and  _240
REMARK  107  A    between atoms: _242  and  _244
REMARK  108  A    between atoms: _244  and  _245
REMARK  109  A    between atoms: _244  and  _247
REMARK  110  A    between atoms: _247  and  _248
REMARK  111  A    between atoms: _251  and  _253
REMARK  112  A    between atoms: _253  and  _254
REMARK  113  A    between atoms: _256  and  _258
REMARK  114  A    between atoms: _258  and  _259
REMARK  115  A    between atoms: _258  and  _261
REMARK  116  A    between atoms: _261  and  _262
REMARK  117  A    between atoms: _262  and  _263
REMARK  118  A    between atoms: _263  and  _264
REMARK  119  A    between atoms: _273  and  _275
REMARK  120  A    between atoms: _275  and  _276
REMARK  121  A    between atoms: _275  and  _278
REMARK  122  A    between atoms: _278  and  _279
REMARK  123  A    between atoms: _282  and  _284
REMARK  124  A    between atoms: _284  and  _285
REMARK  125  A    between atoms: _284  and  _287
REMARK  126  A    between atoms: _287  and  _288
REMARK  127  A    between atoms: _294  and  _298
REMARK  128  A    between atoms: _298  and  _299
REMARK  129  A    between atoms: _298  and  _301
REMARK  130  A    between atoms: _301  and  _302
REMARK  131  A    between atoms: _302  and  _303
REMARK  132  A    between atoms: _305  and  _307
REMARK  133  A    between atoms: _307  and  _308
REMARK  134  A    between atoms: _307  and  _310
REMARK  135  A    between atoms: _310  and  _311
REMARK  136  A    between atoms: _311  and  _312
REMARK  137  A    between atoms: _312  and  _313
REMARK  138  A    between atoms: _313  and  _314
REMARK  139  A    between atoms: _318  and  _320
REMARK  140  A    between atoms: _320  and  _321
REMARK  141  A    between atoms: _320  and  _323
REMARK  142  A    between atoms: _323  and  _324
REMARK  143  A    between atoms: _324  and  _325
REMARK  144  A    between atoms: _327  and  _329
REMARK  145  A    between atoms: _329  and  _330
REMARK  146  A    between atoms: _329  and  _332
REMARK  147  A    between atoms: _335  and  _337
REMARK  148  A    between atoms: _337  and  _338
REMARK  149  A    between atoms: _337  and  _340
REMARK  150  A    between atoms: _340  and  _341
REMARK  151  A    between atoms: _347  and  _349
REMARK  152  A    between atoms: _349  and  _350
REMARK  153  A    between atoms: _349  and  _352
REMARK  154  A    between atoms: _355  and  _357
REMARK  155  A    between atoms: _357  and  _358
REMARK  156  A    between atoms: _360  and  _362
REMARK  157  A    between atoms: _362  and  _363
REMARK  158  A    between atoms: _362  and  _365
REMARK  159  A    between atoms: _365  and  _366
REMARK  160  A    between atoms: _366  and  _367
REMARK  161  A    between atoms: _369  and  _371
REMARK  162  A    between atoms: _371  and  _372
REMARK  163  A    between atoms: _371  and  _374
REMARK  164  A    between atoms: _374  and  _375
REMARK  165  A    between atoms: _378  and  _380
REMARK  166  A    between atoms: _380  and  _381
REMARK  167  A    between atoms: _380  and  _383
REMARK  168  A    between atoms: _386  and  _388
REMARK  169  A    between atoms: _388  and  _389
REMARK  170  A    between atoms: _388  and  _391
REMARK  171  A    between atoms: _394  and  _396
REMARK  172  A    between atoms: _396  and  _397
REMARK  173  A    between atoms: _396  and  _399
REMARK  174  A    between atoms: _399  and  _400
REMARK  175  A    between atoms: _400  and  _401
REMARK  176  A    between atoms: _404  and  _406
REMARK  177  A    between atoms: _406  and  _407
REMARK  178  A    between atoms: _406  and  _409
REMARK  179  A    between atoms: _412  and  _414
REMARK  180  A    between atoms: _414  and  _415
REMARK  181  A    between atoms: _414  and  _417
REMARK  182  A    between atoms: _420  and  _422
REMARK  183  A    between atoms: _422  and  _423
REMARK  184  A    between atoms: _422  and  _425
REMARK  185  A    between atoms: _428  and  _430
REMARK  186  A    between atoms: _430  and  _431
REMARK  187  A    between atoms: _430  and  _433
REMARK  188  A    between atoms: _433  and  _434
REMARK  189  A    between atoms: _436  and  _438
REMARK  190  A    between atoms: _438  and  _439
REMARK  191  A    between atoms: _438  and  _441
REMARK  192  A    between atoms: _441  and  _442
REMARK  193  A    between atoms: _444  and  _446
REMARK  194  A    between atoms: _446  and  _447
REMARK  195  A    between atoms: _446  and  _449
REMARK  196  A    between atoms: _452  and  _454
REMARK  197  A    between atoms: _454  and  _455
REMARK  198  A    between atoms: _454  and  _457
REMARK  199  A    between atoms: _457  and  _458
REMARK  200  A    between atoms: _458  and  _459
REMARK  201  A    between atoms: _459  and  _460
REMARK  202  A    between atoms: _460  and  _461
REMARK  203  A    between atoms: _465  and  _467
REMARK  204  A    between atoms: _467  and  _468
REMARK  205  A    between atoms: _467  and  _470
REMARK  206  A    between atoms: _470  and  _471
REMARK  207  A    between atoms: _474  and  _476
REMARK  208  A    between atoms: _476  and  _477
REMARK  209  A    between atoms: _476  and  _479
REMARK  210  A    between atoms: _479  and  _480
REMARK  211  A    between atoms: _480  and  _481
REMARK  212  A    between atoms: _481  and  _482
REMARK  213  A    between atoms: _491  and  _493
REMARK  214  A    between atoms: _493  and  _494
REMARK  215  A    between atoms: _493  and  _496
REMARK  216  A    between atoms: _496  and  _497
REMARK  217  A    between atoms: _500  and  _502
REMARK  218  A    between atoms: _502  and  _503
REMARK  219  A    between atoms: _502  and  _505
REMARK  220  A    between atoms: _505  and  _506
REMARK  221  A    between atoms: _506  and  _507
REMARK                            x       y       z     vdW  Elec       q    Type
REMARK                         _______ _______ _______ _____ _____    ______ ____
ROOT
ATOM      1  CA  LYS A   2      20.708 -10.618 -20.809  0.00  0.00    +0.148 C 
ENDROOT
BRANCH   1   4
ATOM      2  C   MET A   1      21.153 -12.840 -19.860  0.00  0.00    +0.202 C 
ATOM      3  O   MET A   1      22.156 -12.437 -19.257  0.00  0.00    -0.277 OA
ATOM      4  N   LYS A   2      20.402 -12.040 -20.636  0.00  0.00    -0.300 N 
ATOM      5  H   LYS A   2      19.579 -12.443 -21.128  0.00  0.00    +0.150 HD
BRANCH   2   6
ATOM      6  CA  MET A   1      20.696 -14.280 -19.698  0.00  0.00    +0.014 C 
BRANCH   6   7
ATOM      7  N   MET A   1      21.872 -15.134 -19.525  0.00  0.00    +0.387 N 
ATOM      8  H1  MET A   1      22.396 -14.833 -18.678  0.00  0.00    -0.089 HD
ATOM      9  H2  MET A   1      21.568 -16.122 -19.413  0.00  0.00    -0.089 HD
ATOM     10  H3  MET A   1      22.485 -15.051 -20.361  0.00  0.00    -0.089 HD
ENDBRANCH   6   7
BRANCH   6  11
ATOM     11  CB  MET A   1      19.750 -14.348 -18.475  0.00  0.00    -0.001 C 
BRANCH  11  12
ATOM     12  CG  MET A   1      19.256 -15.744 -18.098  0.00  0.00    +0.056 C 
BRANCH  12  13
ATOM     13  SD  MET A   1      18.060 -16.457 -19.259  0.00  0.00    -0.139 S 
ATOM     14  CE  MET A   1      16.633 -15.337 -19.041  0.00  0.00    +0.069 C 
ENDBRANCH  12  13
ENDBRANCH  11  12
ENDBRANCH   6  11
ENDBRANCH   2   6
ENDBRANCH   1   4
BRANCH   1  15
ATOM     15  C   LYS A   2      19.440  -9.813 -20.754  0.00  0.00    +0.241 C 
ATOM     16  N   MET A   3      19.541  -8.538 -20.363  0.00  0.00    -0.297 N 
ATOM     17  H   MET A   3      20.449  -8.184 -20.001  0.00  0.00    +0.150 HD
ATOM     18  O   LYS A   2      18.393 -10.318 -21.125  0.00  0.00    -0.273 OA
BRANCH  16  19
ATOM     19  CA  MET A   3      18.406  -7.645 -20.436  0.00  0.00    +0.149 C 
BRANCH  19  20
ATOM     20  C   MET A   3      18.655  -6.735 -21.618  0.00  0.00    +0.241 C 
ATOM     21  O   MET A   3      19.653  -6.008 -21.647  0.00  0.00    -0.273 OA
ATOM     22  N   VAL A   4      17.725  -6.763 -22.576  0.00  0.00    -0.298 N 
ATOM     23  H   VAL A   4      16.930  -7.426 -22.473  0.00  0.00    +0.150 HD
BRANCH  22  24
ATOM     24  CA  VAL A   4      17.767  -5.914 -23.756  0.00  0.00    +0.137 C 
BRANCH  24  25
ATOM     25  CB  VAL A   4      17.265  -6.659 -25.035  0.00  0.00    +0.026 C 
ATOM     26  CG2 VAL A   4      18.143  -7.883 -25.332  0.00  0.00    +0.002 C 
ATOM     27  CG1 VAL A   4      17.247  -5.720 -26.234  0.00  0.00    +0.002 C 
ENDBRANCH  24  25
BRANCH  24  28
ATOM     28  C   VAL A   4      16.929  -4.703 -23.411  0.00  0.00    +0.227 C 
ATOM     29  O   VAL A   4      15.733  -4.848 -23.177  0.00  0.00    -0.286 OA
ENDBRANCH  24  28
ENDBRANCH  22  24
ENDBRANCH  19  20
BRANCH  19  30
ATOM     30  CB  MET A   3      18.201  -6.800 -19.168  0.00  0.00    +0.041 C 
BRANCH  30  31
ATOM     31  CG  MET A   3      16.939  -5.912 -19.265  0.00  0.00    +0.060 C 
BRANCH  31  32
ATOM     32  SD  MET A   3      16.760  -4.821 -17.833  0.00  0.00    -0.139 S 
ATOM     33  CE  MET A   3      16.112  -5.943 -16.653  0.00  0.00    +0.069 C 
ENDBRANCH  31  32
ENDBRANCH  30  31
ENDBRANCH  19  30
ENDBRANCH  16  19
ENDBRANCH   1  15
BRANCH   1  34
ATOM     34  CB  LYS A   2      21.403 -10.334 -22.155  0.00  0.00    +0.029 C 
BRANCH  34  35
ATOM     35  CG  LYS A   2      22.655 -11.170 -22.470  0.00  0.00    +0.000 C 
BRANCH  35  36
ATOM     36  CD  LYS A   2      23.880 -10.787 -21.672  0.00  0.00    -0.024 C 
BRANCH  36  37
ATOM     37  CE  LYS A   2      24.939 -11.850 -21.885  0.00  0.00    -0.086 C 
BRANCH  37  38
ATOM     38  NZ  LYS A   2      26.037 -11.750 -20.900  0.00  0.00    +0.380 N 
ATOM     39  HZ1 LYS A   2      25.652 -11.864 -19.941  0.00  0.00    -0.089 HD
ATOM     40  HZ2 LYS A   2      26.492 -10.819 -20.983  0.00  0.00    -0.089 HD
ATOM     41  HZ3 LYS A   2      26.737 -12.497 -21.085  0.00  0.00    -0.089 HD
ENDBRANCH  37  38
ENDBRANCH  36  37
ENDBRANCH  35  36
ENDBRANCH  34  35
ENDBRANCH   1  34
TORSDOF 20
REMARK  Name = ../refined-set-2016/3ta1/3ta1_pocket.pdb
REMARK  221 active torsions:
REMARK  status: ('A' for Active; 'I' for Inactive)
REMARK    1  A    between atoms: _1  and  _3
REMARK    2  A    between atoms: _3  and  _4
REMARK    3  A    between atoms: _7  and  _9
REMARK    4  A    between atoms: _9  and  _10
REMARK    5  A    between atoms: _9  and  _12
REMARK    6  A    between atoms: _15  and  _17
REMARK    7  A    between atoms: _17  and  _18
REMARK    8  A    between atoms: _17  and  _20
REMARK    9  A    between atoms: _20  and  _21
REMARK   10  A    between atoms: _24  and  _26
REMARK   11  A    between atoms: _26  and  _27
REMARK   12  A    between atoms: _26  and  _29
REMARK   13  A    between atoms: _29  and  _30
REMARK   14  A    between atoms: _30  and  _31
REMARK   15  A    between atoms: _31  and  _32
REMARK   16  A    between atoms: _41  and  _43
REMARK   17  A    between atoms: _43  and  _44
REMARK   18  A    between atoms: _43  and  _46
REMARK   19  A    between atoms: _49  and  _51
REMARK   20  A    between atoms: _51  and  _52
REMARK   21  A    between atoms: _51  and  _54
REMARK   22  A    between atoms: _54  and  _55
REMARK   23  A    between atoms: _55  and  _56
REMARK   24  A    between atoms: _56  and  _57
REMARK   25  A    between atoms: _57  and  _58
REMARK   26  A    between atoms: _62  and  _64
REMARK   27  A    between atoms: _64  and  _65
REMARK   28  A    between atoms: _67  and  _69
REMARK   29  A    between atoms: _69  and  _70
REMARK   30  A    between atoms: _69  and  _72
REMARK   31  A    between atoms: _72  and  _73
REMARK   32  A    between atoms: _73  and  _74
REMARK   33  A    between atoms: _74  and  _75
REMARK   34  A    between atoms: _84  and  _86
REMARK   35  A    between atoms: _86  and  _87
REMARK   36  A    between atoms: _89  and  _91
REMARK   37  A    between atoms: _91  and  _92
REMARK   38  A    between atoms: _91  and  _94
REMARK   39  A    between atoms: _94  and  _95
REMARK   40  A    between atoms: _95  and  _96
REMARK   41  A    between atoms: _99  and  _101
REMARK   42  A    between atoms: _101  and  _102
REMARK   43  A    between atoms: _101  and  _104
REMARK   44  A    between atoms: _104  and  _105
REMARK   45  A    between atoms: _105  and  _106
REMARK   46  A    between atoms: _111  and  _113
REMARK   47  A    between atoms: _113  and  _114
REMARK   48  A    between atoms: _113  and  _116
REMARK   49  A    between atoms: _116  and  _117
REMARK   50  A    between atoms: _117  and  _118
REMARK   51  A    between atoms: _118  and  _119
REMARK   52  A    between atoms: _119  and  _120
REMARK   53  A    between atoms: _124  and  _126
REMARK   54  A    between atoms: _126  and  _127
REMARK   55  A    between atoms: _126  and  _129
REMARK   56  A    between atoms: _129  and  _130
REMARK   57  A    between atoms: _133  and  _135
REMARK   58  A    between atoms: _135  and  _136
REMARK   59  A    between atoms: _135  and  _138
REMARK   60  A    between atoms: _138  and  _139
REMARK   61  A    between atoms: _142  and  _144
REMARK   62  A    between atoms: _144  and  _145
REMARK   63  A    between atoms: _144  and  _147
REMARK   64  A    between atoms: _147  and  _148
REMARK   65  A    between atoms: _151  and  _153
REMARK   66  A    between atoms: _153  and  _154
REMARK   67  A    between atoms: _153  and  _156
REMARK   68  A    between atoms: _156  and  _157
REMARK   69  A    between atoms: _157  and  _158
REMARK   70  A    between atoms: _163  and  _165
REMARK   71  A    between atoms: _165  and  _166
REMARK   72  A    between atoms: _165  and  _168
REMARK   73  A    between atoms: _168  and  _169
REMARK   74  A    between atoms: _169  and  _170
REMARK   75  A    between atoms: _170  and  _171
REMARK   76  A    between atoms: _171  and  _172
REMARK   77  A    between atoms: _176  and  _178
REMARK   78  A    between atoms: _178  and  _179
REMARK   79  A    between atoms: _178  and  _181
REMARK   80  A    between atoms: _181  and  _182
REMARK   81  A    between atoms: _185  and  _187
REMARK   82  A    between atoms: _187  and  _188
REMARK   83  A    between atoms: _187  and  _190
REMARK   84  A    between atoms: _190  and  _191
REMARK   85  A    between atoms: _191  and  _192
REMARK   86  A    between atoms: _192  and  _193
REMARK   87  A    between atoms: _193  and  _194
REMARK   88  A    between atoms: _198  and  _200
REMARK   89  A    between atoms: _200  and  _201
REMARK   90  A    between atoms: _200  and  _203
REMARK   91  A    between atoms: _203  and  _204
REMARK   92  A    between atoms: _207  and  _209
REMARK   93  A    between atoms: _209  and  _210
REMARK   94  A    between atoms: _212  and  _214
REMARK   95  A    between atoms: _214  and  _215
REMARK   96  A    between atoms: _214  and  _217
REMARK   97  A    between atoms: _217  and  _218
REMARK   98  A    between atoms: _218  and  _219
REMARK   99  A    between atoms: _219  and  _220
REMARK  100  A    between atoms: _220  and  _221
REMARK  101  A    between atoms: _225  and  _227
REMARK  102  A    between atoms: _227  and  _228
REMARK  103  A    between atoms: _227  and  _230
REMARK  104  A    between atoms: _230  and  _231
REMARK  105  A    between atoms: _237  and  _239
REMARK  106  A    between atoms: _239  and  _240
REMARK  107  A    between atoms: _242  and  _244
REMARK  108  A    between atoms: _244  and  _245
REMARK  109  A    between atoms: _244  and  _247
REMARK  110  A    between atoms: _247  and  _248
REMARK  111  A    between atoms: _251  and  _253
REMARK  112  A    between atoms: _253  and  _254
REMARK  113  A    between atoms: _256  and  _258
REMARK  114  A    between atoms: _258  and  _259
REMARK  115  A    between atoms: _258  and  _261
REMARK  116  A    between atoms: _261  and  _262
REMARK  117  A    between atoms: _262  and  _263
REMARK  118  A    between atoms: _263  and  _264
REMARK  119  A    between atoms: _273  and  _275
REMARK  120  A    between atoms: _275  and  _276
REMARK  121  A    between atoms: _275  and  _278
REMARK  122  A    between atoms: _278  and  _279
REMARK  123  A    between atoms: _282  and  _284
REMARK  124  A    between atoms: _284  and  _285
REMARK  125  A    between atoms: _284  and  _287
REMARK  126  A    between atoms: _287  and  _288
REMARK  127  A    between atoms: _294  and  _298
REMARK  128  A    between atoms: _298  and  _299
REMARK  129  A    between atoms: _298  and  _301
REMARK  130  A    between atoms: _301  and  _302
REMARK  131  A    between atoms: _302  and  _303
REMARK  132  A    between atoms: _305  and  _307
REMARK  133  A    between atoms: _307  and  _308
REMARK  134  A    between atoms: _307  and  _310
REMARK  135  A    between atoms: _310  and  _311
REMARK  136  A    between atoms: _311  and  _312
REMARK  137  A    between atoms: _312  and  _313
REMARK  138  A    between atoms: _313  and  _314
REMARK  139  A    between atoms: _318  and  _320
REMARK  140  A    between atoms: _320  and  _321
REMARK  141  A    between atoms: _320  and  _323
REMARK  142  A    between atoms: _323  and  _324
REMARK  143  A    between atoms: _324  and  _325
REMARK  144  A    between atoms: _327  and  _329
REMARK  145  A    between atoms: _329  and  _330
REMARK  146  A    between atoms: _329  and  _332
REMARK  147  A    between atoms: _335  and  _337
REMARK  148  A    between atoms: _337  and  _338
REMARK  149  A    between atoms: _337  and  _340
REMARK  150  A    between atoms: _340  and  _341
REMARK  151  A    between atoms: _347  and  _349
REMARK  152  A    between atoms: _349  and  _350
REMARK  153  A    between atoms: _349  and  _352
REMARK  154  A    between atoms: _355  and  _357
REMARK  155  A    between atoms: _357  and  _358
REMARK  156  A    between atoms: _360  and  _362
REMARK  157  A    between atoms: _362  and  _363
REMARK  158  A    between atoms: _362  and  _365
REMARK  159  A    between atoms: _365  and  _366
REMARK  160  A    between atoms: _366  and  _367
REMARK  161  A    between atoms: _369  and  _371
REMARK  162  A    between atoms: _371  and  _372
REMARK  163  A    between atoms: _371  and  _374
REMARK  164  A    between atoms: _374  and  _375
REMARK  165  A    between atoms: _378  and  _380
REMARK  166  A    between atoms: _380  and  _381
REMARK  167  A    between atoms: _380  and  _383
REMARK  168  A    between atoms: _386  and  _388
REMARK  169  A    between atoms: _388  and  _389
REMARK  170  A    between atoms: _388  and  _391
REMARK  171  A    between atoms: _394  and  _396
REMARK  172  A    between atoms: _396  and  _397
REMARK  173  A    between atoms: _396  and  _399
REMARK  174  A    between atoms: _399  and  _400
REMARK  175  A    between atoms: _400  and  _401
REMARK  176  A    between atoms: _404  and  _406
REMARK  177  A    between atoms: _406  and  _407
REMARK  178  A    between atoms: _406  and  _409
REMARK  179  A    between atoms: _412  and  _414
REMARK  180  A    between atoms: _414  and  _415
REMARK  181  A    between atoms: _414  and  _417
REMARK  182  A    between atoms: _420  and  _422
REMARK  183  A    between atoms: _422  and  _423
REMARK  184  A    between atoms: _422  and  _425
REMARK  185  A    between atoms: _428  and  _430
REMARK  186  A    between atoms: _430  and  _431
REMARK  187  A    between atoms: _430  and  _433
REMARK  188  A    between atoms: _433  and  _434
REMARK  189  A    between atoms: _436  and  _438
REMARK  190  A    between atoms: _438  and  _439
REMARK  191  A    between atoms: _438  and  _441
REMARK  192  A    between atoms: _441  and  _442
REMARK  193  A    between atoms: _444  and  _446
REMARK  194  A    between atoms: _446  and  _447
REMARK  195  A    between atoms: _446  and  _449
REMARK  196  A    between atoms: _452  and  _454
REMARK  197  A    between atoms: _454  and  _455
REMARK  198  A    between atoms: _454  and  _457
REMARK  199  A    between atoms: _457  and  _458
REMARK  200  A    between atoms: _458  and  _459
REMARK  201  A    between atoms: _459  and  _460
REMARK  202  A    between atoms: _460  and  _461
REMARK  203  A    between atoms: _465  and  _467
REMARK  204  A    between atoms: _467  and  _468
REMARK  205  A    between atoms: _467  and  _470
REMARK  206  A    between atoms: _470  and  _471
REMARK  207  A    between atoms: _474  and  _476
REMARK  208  A    between atoms: _476  and  _477
REMARK  209  A    between atoms: _476  and  _479
REMARK  210  A    between atoms: _479  and  _480
REMARK  211  A    between atoms: _480  and  _481
REMARK  212  A    between atoms: _481  and  _482
REMARK  213  A    between atoms: _491  and  _493
REMARK  214  A    between atoms: _493  and  _494
REMARK  215  A    between atoms: _493  and  _496
REMARK  216  A    between atoms: _496  and  _497
REMARK  217  A    between atoms: _500  and  _502
REMARK  218  A    between atoms: _502  and  _503
REMARK  219  A    between atoms: _502  and  _505
REMARK  220  A    between atoms: _505  and  _506
REMARK  221  A    between atoms: _506  and  _507
REMARK                            x       y       z     vdW  Elec       q    Type
REMARK                         _______ _______ _______ _____ _____    ______ ____
ROOT
ATOM      1  C   GLY A   3       8.059  -9.704 -22.194  0.00  0.00    +0.243 C 
ATOM      2  N   MET A   4       7.614  -8.577 -21.615  0.00  0.00    -0.297 N 
ATOM      3  H   MET A   4       6.712  -8.607 -21.098  0.00  0.00    +0.150 HD
ATOM      4  O   GLY A   3       9.101  -9.753 -22.854  0.00  0.00    -0.273 OA
ENDROOT
BRANCH   2   5
ATOM      5  CA  MET A   4       8.348  -7.295 -21.680  0.00  0.00    +0.149 C 
BRANCH   5   6
ATOM      6  C   MET A   4       7.859  -6.335 -20.621  0.00  0.00    +0.241 C 
ATOM      7  N   THR A   5       8.741  -5.410 -20.175  0.00  0.00    -0.295 N 
ATOM      8  H   THR A   5       9.714  -5.436 -20.540  0.00  0.00    +0.150 HD
ATOM      9  O   MET A   4       6.695  -6.410 -20.221  0.00  0.00    -0.273 OA
BRANCH   7  10
ATOM     10  CA  THR A   5       8.386  -4.373 -19.200  0.00  0.00    +0.176 C 
BRANCH  10  11
ATOM     11  C   THR A   5       8.614  -3.043 -19.907  0.00  0.00    +0.243 C 
ATOM     12  N   VAL A   6       7.609  -2.159 -19.840  0.00  0.00    -0.298 N 
ATOM     13  H   VAL A   6       6.796  -2.399 -19.237  0.00  0.00    +0.150 HD
ATOM     14  O   THR A   5       9.658  -2.846 -20.544  0.00  0.00    -0.273 OA
BRANCH  12  15
ATOM     15  CA  VAL A   6       7.569  -0.877 -20.554  0.00  0.00    +0.137 C 
BRANCH  15  16
ATOM     16  CB  VAL A   6       6.383  -0.871 -21.576  0.00  0.00    +0.026 C 
ATOM     17  CG2 VAL A   6       6.305   0.445 -22.358  0.00  0.00    +0.002 C 
ATOM     18  CG1 VAL A   6       6.475  -2.047 -22.544  0.00  0.00    +0.002 C 
ENDBRANCH  15  16
BRANCH  15  19
ATOM     19  C   VAL A   6       7.486   0.273 -19.558  0.00  0.00    +0.227 C 
ATOM     20  O   VAL A   6       6.655   0.242 -18.642  0.00  0.00    -0.286 OA
ENDBRANCH  15  19
ENDBRANCH  12  15
ENDBRANCH  10  11
BRANCH  10  21
ATOM     21  CB  THR A   5       9.186  -4.541 -17.898  0.00  0.00    +0.137 C 
ATOM     22  CG2 THR A   5       8.885  -3.449 -16.898  0.00  0.00    +0.034 C 
BRANCH  21  23
ATOM     23  OG1 THR A   5       8.879  -5.825 -17.320  0.00  0.00    -0.382 OA
ATOM     24  HG1 THR A   5       9.126  -6.540 -17.958  0.00  0.00    +0.210 HD
ENDBRANCH  21  23
ENDBRANCH  10  21
ENDBRANCH   7  10
ENDBRANCH   5   6
BRANCH   5  25
ATOM     25  CB  MET A   4       8.208  -6.631 -23.066  0.00  0.00    +0.041 C 
BRANCH  25  26
ATOM     26  CG  MET A   4       6.777  -6.197 -23.390  0.00  0.00    +0.060 C 
BRANCH  26  27
ATOM     27  SD  MET A   4       6.604  -5.449 -25.006  0.00  0.00    -0.139 S 
ATOM     28  CE  MET A   4       6.789  -6.892 -25.978  0.00  0.00    +0.069 C 
ENDBRANCH  26  27
ENDBRANCH  25  26
ENDBRANCH   5  25
ENDBRANCH   2   5
BRANCH   1  29
ATOM     29  CA  GLY A   3       7.223 -10.951 -22.004  0.00  0.00    +0.176 C 
BRANCH  29  31
ATOM     30  C   VAL A   2       6.027 -11.305 -24.104  0.00  0.00    +0.241 C 
ATOM     31  N   GLY A   3       6.970 -11.674 -23.245  0.00  0.00    -0.295 N 
ATOM     32  H   GLY A   3       7.549 -12.509 -23.465  0.00  0.00    +0.150 HD
ATOM     33  O   VAL A   2       5.322 -10.306 -23.954  0.00  0.00    -0.273 OA
BRANCH  30  34
ATOM     34  CA  VAL A   2       5.851 -12.165 -25.367  0.00  0.00    +0.148 C 
BRANCH  34  36
ATOM     35  C   PHE A   1       7.963 -12.107 -26.688  0.00  0.00    +0.239 C 
ATOM     36  N   VAL A   2       7.108 -12.731 -25.865  0.00  0.00    -0.297 N 
ATOM     37  H   VAL A   2       7.356 -13.692 -25.556  0.00  0.00    +0.150 HD
ATOM     38  O   PHE A   1       7.776 -10.963 -27.110  0.00  0.00    -0.274 OA
BRANCH  35  39
ATOM     39  CA  PHE A   1       9.176 -12.928 -27.138  0.00  0.00    +0.149 C 
BRANCH  39  40
ATOM     40  N   PHE A   1       8.777 -13.754 -28.289  0.00  0.00    -0.238 NA
ATOM     41  H   PHE A   1       8.744 -13.306 -29.227  0.00  0.00    +0.142 HD
ENDBRANCH  39  40
BRANCH  39  42
ATOM     42  CB  PHE A   1      10.391 -12.038 -27.483  0.00  0.00    +0.053 C 
BRANCH  42  43
ATOM     43  CG  PHE A   1      11.568 -12.826 -27.996  0.00  0.00    -0.020 A 
ATOM     44  CD2 PHE A   1      12.396 -13.519 -27.121  0.00  0.00    -0.004 A 
ATOM     45  CE2 PHE A   1      13.462 -14.287 -27.603  0.00  0.00    -0.000 A 
ATOM     46  CZ  PHE A   1      13.701 -14.355 -28.958  0.00  0.00    -0.000 A 
ATOM     47  CE1 PHE A   1      12.905 -13.659 -29.838  0.00  0.00    -0.000 A 
ATOM     48  CD1 PHE A   1      11.829 -12.908 -29.360  0.00  0.00    -0.004 A 
ENDBRANCH  42  43
ENDBRANCH  39  42
ENDBRANCH  35  39
ENDBRANCH  34  36
BRANCH  34  49
ATOM     49  CB  VAL A   2       4.772 -13.281 -25.223  0.00  0.00    +0.027 C 
ATOM     50  CG2 VAL A   2       3.533 -12.800 -24.471  0.00  0.00    +0.002 C 
ATOM     51  CG1 VAL A   2       4.378 -13.822 -26.594  0.00  0.00    +0.002 C 
ENDBRANCH  34  49
ENDBRANCH  30  34
ENDBRANCH  29  31
ENDBRANCH   1  29
TORSDOF 21
REMARK  Name = ../refined-set-2016/3ta1/3ta1_pocket.pdb
REMARK  221 active torsions:
REMARK  status: ('A' for Active; 'I' for Inactive)
REMARK    1  A    between atoms: _1  and  _3
REMARK    2  A    between atoms: _3  and  _4
REMARK    3  A    between atoms: _7  and  _9
REMARK    4  A    between atoms: _9  and  _10
REMARK    5  A    between atoms: _9  and  _12
REMARK    6  A    between atoms: _15  and  _17
REMARK    7  A    between atoms: _17  and  _18
REMARK    8  A    between atoms: _17  and  _20
REMARK    9  A    between atoms: _20  and  _21
REMARK   10  A    between atoms: _24  and  _26
REMARK   11  A    between atoms: _26  and  _27
REMARK   12  A    between atoms: _26  and  _29
REMARK   13  A    between atoms: _29  and  _30
REMARK   14  A    between atoms: _30  and  _31
REMARK   15  A    between atoms: _31  and  _32
REMARK   16  A    between atoms: _41  and  _43
REMARK   17  A    between atoms: _43  and  _44
REMARK   18  A    between atoms: _43  and  _46
REMARK   19  A    between atoms: _49  and  _51
REMARK   20  A    between atoms: _51  and  _52
REMARK   21  A    between atoms: _51  and  _54
REMARK   22  A    between atoms: _54  and  _55
REMARK   23  A    between atoms: _55  and  _56
REMARK   24  A    between atoms: _56  and  _57
REMARK   25  A    between atoms: _57  and  _58
REMARK   26  A    between atoms: _62  and  _64
REMARK   27  A    between atoms: _64  and  _65
REMARK   28  A    between atoms: _67  and  _69
REMARK   29  A    between atoms: _69  and  _70
REMARK   30  A    between atoms: _69  and  _72
REMARK   31  A    between atoms: _72  and  _73
REMARK   32  A    between atoms: _73  and  _74
REMARK   33  A    between atoms: _74  and  _75
REMARK   34  A    between atoms: _84  and  _86
REMARK   35  A    between atoms: _86  and  _87
REMARK   36  A    between atoms: _89  and  _91
REMARK   37  A    between atoms: _91  and  _92
REMARK   38  A    between atoms: _91  and  _94
REMARK   39  A    between atoms: _94  and  _95
REMARK   40  A    between atoms: _95  and  _96
REMARK   41  A    between atoms: _99  and  _101
REMARK   42  A    between atoms: _101  and  _102
REMARK   43  A    between atoms: _101  and  _104
REMARK   44  A    between atoms: _104  and  _105
REMARK   45  A    between atoms: _105  and  _106
REMARK   46  A    between atoms: _111  and  _113
REMARK   47  A    between atoms: _113  and  _114
REMARK   48  A    between atoms: _113  and  _116
REMARK   49  A    between atoms: _116  and  _117
REMARK   50  A    between atoms: _117  and  _118
REMARK   51  A    between atoms: _118  and  _119
REMARK   52  A    between atoms: _119  and  _120
REMARK   53  A    between atoms: _124  and  _126
REMARK   54  A    between atoms: _126  and  _127
REMARK   55  A    between atoms: _126  and  _129
REMARK   56  A    between atoms: _129  and  _130
REMARK   57  A    between atoms: _133  and  _135
REMARK   58  A    between atoms: _135  and  _136
REMARK   59  A    between atoms: _135  and  _138
REMARK   60  A    between atoms: _138  and  _139
REMARK   61  A    between atoms: _142  and  _144
REMARK   62  A    between atoms: _144  and  _145
REMARK   63  A    between atoms: _144  and  _147
REMARK   64  A    between atoms: _147  and  _148
REMARK   65  A    between atoms: _151  and  _153
REMARK   66  A    between atoms: _153  and  _154
REMARK   67  A    between atoms: _153  and  _156
REMARK   68  A    between atoms: _156  and  _157
REMARK   69  A    between atoms: _157  and  _158
REMARK   70  A    between atoms: _163  and  _165
REMARK   71  A    between atoms: _165  and  _166
REMARK   72  A    between atoms: _165  and  _168
REMARK   73  A    between atoms: _168  and  _169
REMARK   74  A    between atoms: _169  and  _170
REMARK   75  A    between atoms: _170  and  _171
REMARK   76  A    between atoms: _171  and  _172
REMARK   77  A    between atoms: _176  and  _178
REMARK   78  A    between atoms: _178  and  _179
REMARK   79  A    between atoms: _178  and  _181
REMARK   80  A    between atoms: _181  and  _182
REMARK   81  A    between atoms: _185  and  _187
REMARK   82  A    between atoms: _187  and  _188
REMARK   83  A    between atoms: _187  and  _190
REMARK   84  A    between atoms: _190  and  _191
REMARK   85  A    between atoms: _191  and  _192
REMARK   86  A    between atoms: _192  and  _193
REMARK   87  A    between atoms: _193  and  _194
REMARK   88  A    between atoms: _198  and  _200
REMARK   89  A    between atoms: _200  and  _201
REMARK   90  A    between atoms: _200  and  _203
REMARK   91  A    between atoms: _203  and  _204
REMARK   92  A    between atoms: _207  and  _209
REMARK   93  A    between atoms: _209  and  _210
REMARK   94  A    between atoms: _212  and  _214
REMARK   95  A    between atoms: _214  and  _215
REMARK   96  A    between atoms: _214  and  _217
REMARK   97  A    between atoms: _217  and  _218
REMARK   98  A    between atoms: _218  and  _219
REMARK   99  A    between atoms: _219  and  _220
REMARK  100  A    between atoms: _220  and  _221
REMARK  101  A    between atoms: _225  and  _227
REMARK  102  A    between atoms: _227  and  _228
REMARK  103  A    between atoms: _227  and  _230
REMARK  104  A    between atoms: _230  and  _231
REMARK  105  A    between atoms: _237  and  _239
REMARK  106  A    between atoms: _239  and  _240
REMARK  107  A    between atoms: _242  and  _244
REMARK  108  A    between atoms: _244  and  _245
REMARK  109  A    between atoms: _244  and  _247
REMARK  110  A    between atoms: _247  and  _248
REMARK  111  A    between atoms: _251  and  _253
REMARK  112  A    between atoms: _253  and  _254
REMARK  113  A    between atoms: _256  and  _258
REMARK  114  A    between atoms: _258  and  _259
REMARK  115  A    between atoms: _258  and  _261
REMARK  116  A    between atoms: _261  and  _262
REMARK  117  A    between atoms: _262  and  _263
REMARK  118  A    between atoms: _263  and  _264
REMARK  119  A    between atoms: _273  and  _275
REMARK  120  A    between atoms: _275  and  _276
REMARK  121  A    between atoms: _275  and  _278
REMARK  122  A    between atoms: _278  and  _279
REMARK  123  A    between atoms: _282  and  _284
REMARK  124  A    between atoms: _284  and  _285
REMARK  125  A    between atoms: _284  and  _287
REMARK  126  A    between atoms: _287  and  _288
REMARK  127  A    between atoms: _294  and  _298
REMARK  128  A    between atoms: _298  and  _299
REMARK  129  A    between atoms: _298  and  _301
REMARK  130  A    between atoms: _301  and  _302
REMARK  131  A    between atoms: _302  and  _303
REMARK  132  A    between atoms: _305  and  _307
REMARK  133  A    between atoms: _307  and  _308
REMARK  134  A    between atoms: _307  and  _310
REMARK  135  A    between atoms: _310  and  _311
REMARK  136  A    between atoms: _311  and  _312
REMARK  137  A    between atoms: _312  and  _313
REMARK  138  A    between atoms: _313  and  _314
REMARK  139  A    between atoms: _318  and  _320
REMARK  140  A    between atoms: _320  and  _321
REMARK  141  A    between atoms: _320  and  _323
REMARK  142  A    between atoms: _323  and  _324
REMARK  143  A    between atoms: _324  and  _325
REMARK  144  A    between atoms: _327  and  _329
REMARK  145  A    between atoms: _329  and  _330
REMARK  146  A    between atoms: _329  and  _332
REMARK  147  A    between atoms: _335  and  _337
REMARK  148  A    between atoms: _337  and  _338
REMARK  149  A    between atoms: _337  and  _340
REMARK  150  A    between atoms: _340  and  _341
REMARK  151  A    between atoms: _347  and  _349
REMARK  152  A    between atoms: _349  and  _350
REMARK  153  A    between atoms: _349  and  _352
REMARK  154  A    between atoms: _355  and  _357
REMARK  155  A    between atoms: _357  and  _358
REMARK  156  A    between atoms: _360  and  _362
REMARK  157  A    between atoms: _362  and  _363
REMARK  158  A    between atoms: _362  and  _365
REMARK  159  A    between atoms: _365  and  _366
REMARK  160  A    between atoms: _366  and  _367
REMARK  161  A    between atoms: _369  and  _371
REMARK  162  A    between atoms: _371  and  _372
REMARK  163  A    between atoms: _371  and  _374
REMARK  164  A    between atoms: _374  and  _375
REMARK  165  A    between atoms: _378  and  _380
REMARK  166  A    between atoms: _380  and  _381
REMARK  167  A    between atoms: _380  and  _383
REMARK  168  A    between atoms: _386  and  _388
REMARK  169  A    between atoms: _388  and  _389
REMARK  170  A    between atoms: _388  and  _391
REMARK  171  A    between atoms: _394  and  _396
REMARK  172  A    between atoms: _396  and  _397
REMARK  173  A    between atoms: _396  and  _399
REMARK  174  A    between atoms: _399  and  _400
REMARK  175  A    between atoms: _400  and  _401
REMARK  176  A    between atoms: _404  and  _406
REMARK  177  A    between atoms: _406  and  _407
REMARK  178  A    between atoms: _406  and  _409
REMARK  179  A    between atoms: _412  and  _414
REMARK  180  A    between atoms: _414  and  _415
REMARK  181  A    between atoms: _414  and  _417
REMARK  182  A    between atoms: _420  and  _422
REMARK  183  A    between atoms: _422  and  _423
REMARK  184  A    between atoms: _422  and  _425
REMARK  185  A    between atoms: _428  and  _430
REMARK  186  A    between atoms: _430  and  _431
REMARK  187  A    between atoms: _430  and  _433
REMARK  188  A    between atoms: _433  and  _434
REMARK  189  A    between atoms: _436  and  _438
REMARK  190  A    between atoms: _438  and  _439
REMARK  191  A    between atoms: _438  and  _441
REMARK  192  A    between atoms: _441  and  _442
REMARK  193  A    between atoms: _444  and  _446
REMARK  194  A    between atoms: _446  and  _447
REMARK  195  A    between atoms: _446  and  _449
REMARK  196  A    between atoms: _452  and  _454
REMARK  197  A    between atoms: _454  and  _455
REMARK  198  A    between atoms: _454  and  _457
REMARK  199  A    between atoms: _457  and  _458
REMARK  200  A    between atoms: _458  and  _459
REMARK  201  A    between atoms: _459  and  _460
REMARK  202  A    between atoms: _460  and  _461
REMARK  203  A    between atoms: _465  and  _467
REMARK  204  A    between atoms: _467  and  _468
REMARK  205  A    between atoms: _467  and  _470
REMARK  206  A    between atoms: _470  and  _471
REMARK  207  A    between atoms: _474  and  _476
REMARK  208  A    between atoms: _476  and  _477
REMARK  209  A    between atoms: _476  and  _479
REMARK  210  A    between atoms: _479  and  _480
REMARK  211  A    between atoms: _480  and  _481
REMARK  212  A    between atoms: _481  and  _482
REMARK  213  A    between atoms: _491  and  _493
REMARK  214  A    between atoms: _493  and  _494
REMARK  215  A    between atoms: _493  and  _496
REMARK  216  A    between atoms: _496  and  _497
REMARK  217  A    between atoms: _500  and  _502
REMARK  218  A    between atoms: _502  and  _503
REMARK  219  A    between atoms: _502  and  _505
REMARK  220  A    between atoms: _505  and  _506
REMARK  221  A    between atoms: _506  and  _507
REMARK                            x       y       z     vdW  Elec       q    Type
REMARK                         _______ _______ _______ _____ _____    ______ ____
ROOT
ATOM      1  C   VAL A   3      14.334  -8.531 -21.975  0.00  0.00    +0.241 C 
ATOM      2  N   VAL A   4      14.094  -9.449 -21.041  0.00  0.00    -0.297 N 
ATOM      3  H   VAL A   4      13.126  -9.540 -20.673  0.00  0.00    +0.150 HD
ATOM      4  O   VAL A   3      15.448  -8.333 -22.476  0.00  0.00    -0.273 OA
ENDROOT
BRANCH   1   5
ATOM      5  CA  VAL A   3      13.133  -7.746 -22.453  0.00  0.00    +0.149 C 
BRANCH   5   8
ATOM      6  C   GLU A   2      12.545  -5.527 -21.621  0.00  0.00    +0.241 C 
ATOM      7  O   GLU A   2      11.425  -5.885 -21.247  0.00  0.00    -0.273 OA
ATOM      8  N   VAL A   3      13.406  -6.338 -22.207  0.00  0.00    -0.297 N 
ATOM      9  H   VAL A   3      14.324  -5.952 -22.507  0.00  0.00    +0.150 HD
BRANCH   6  10
ATOM     10  CA  GLU A   2      13.008  -4.097 -21.419  0.00  0.00    +0.149 C 
BRANCH  10  12
ATOM     11  C   VAL A   1      12.271  -2.392 -23.011  0.00  0.00    +0.238 C 
ATOM     12  N   GLU A   2      11.999  -3.182 -21.963  0.00  0.00    -0.297 N 
ATOM     13  H   GLU A   2      11.055  -3.146 -21.528  0.00  0.00    +0.150 HD
ATOM     14  O   VAL A   1      13.367  -2.368 -23.568  0.00  0.00    -0.274 OA
BRANCH  11  15
ATOM     15  CA  VAL A   1      11.156  -1.483 -23.518  0.00  0.00    +0.145 C 
BRANCH  15  16
ATOM     16  CB  VAL A   1      10.760  -1.873 -24.979  0.00  0.00    +0.025 C 
ATOM     17  CG2 VAL A   1      10.233  -3.308 -25.019  0.00  0.00    +0.002 C 
ATOM     18  CG1 VAL A   1       9.715  -0.912 -25.554  0.00  0.00    +0.002 C 
ENDBRANCH  15  16
BRANCH  15  19
ATOM     19  N   VAL A   1      11.637  -0.103 -23.415  0.00  0.00    -0.238 NA
ATOM     20  H   VAL A   1      12.474   0.161 -23.972  0.00  0.00    +0.142 HD
ENDBRANCH  15  19
ENDBRANCH  11  15
ENDBRANCH  10  12
BRANCH  10  21
ATOM     21  CB  GLU A   2      13.275  -3.844 -19.928  0.00  0.00    +0.041 C 
BRANCH  21  22
ATOM     22  CG  GLU A   2      13.816  -2.458 -19.646  0.00  0.00    +0.116 C 
BRANCH  22  23
ATOM     23  CD  GLU A   2      13.796  -2.103 -18.174  0.00  0.00    +0.365 C 
ATOM     24  OE2 GLU A   2      12.714  -2.217 -17.560  0.00  0.00    -0.246 OA
ATOM     25  OE1 GLU A   2      14.854  -1.713 -17.632  0.00  0.00    -0.246 OA
ENDBRANCH  22  23
ENDBRANCH  21  22
ENDBRANCH  10  21
ENDBRANCH   6  10
ENDBRANCH   5   8
BRANCH   5  26
ATOM     26  CB  VAL A   3      12.836  -8.056 -23.947  0.00  0.00    +0.027 C 
ATOM     27  CG2 VAL A   3      12.398  -9.502 -24.117  0.00  0.00    +0.002 C 
ATOM     28  CG1 VAL A   3      11.760  -7.140 -24.502  0.00  0.00    +0.002 C 
ENDBRANCH   5  26
ENDBRANCH   1   5
BRANCH   2  29
ATOM     29  CA  VAL A   4      15.125 -10.332 -20.511  0.00  0.00    +0.149 C 
BRANCH  29  30
ATOM     30  C   VAL A   4      15.022 -11.619 -21.278  0.00  0.00    +0.241 C 
ATOM     31  O   VAL A   4      13.955 -12.235 -21.325  0.00  0.00    -0.273 OA
ATOM     32  N   VAL A   5      16.125 -12.004 -21.934  0.00  0.00    -0.297 N 
ATOM     33  H   VAL A   5      16.987 -11.433 -21.820  0.00  0.00    +0.150 HD
BRANCH  32  34
ATOM     34  CA  VAL A   5      16.189 -13.183 -22.803  0.00  0.00    +0.149 C 
BRANCH  34  35
ATOM     35  C   VAL A   5      17.433 -14.027 -22.543  0.00  0.00    +0.241 C 
ATOM     36  O   VAL A   5      18.381 -13.555 -21.917  0.00  0.00    -0.273 OA
ATOM     37  N   SER A   6      17.466 -15.244 -23.118  0.00  0.00    -0.296 N 
ATOM     38  H   SER A   6      16.615 -15.571 -23.618  0.00  0.00    +0.150 HD
BRANCH  37  39
ATOM     39  CA  SER A   6      18.627 -16.136 -23.083  0.00  0.00    +0.166 C 
BRANCH  39  40
ATOM     40  C   SER A   6      19.730 -15.492 -23.946  0.00  0.00    +0.229 C 
ATOM     41  O   SER A   6      19.414 -14.757 -24.888  0.00  0.00    -0.286 OA
ENDBRANCH  39  40
BRANCH  39  42
ATOM     42  CB  SER A   6      18.240 -17.491 -23.666  0.00  0.00    +0.165 C 
BRANCH  42  43
ATOM     43  OG  SER A   6      19.347 -18.377 -23.671  0.00  0.00    -0.380 OA
ATOM     44  H   SER A   6      19.666 -18.509 -22.743  0.00  0.00    +0.211 HD
ENDBRANCH  42  43
ENDBRANCH  39  42
ENDBRANCH  37  39
ENDBRANCH  34  35
BRANCH  34  45
ATOM     45  CB  VAL A   5      16.137 -12.771 -24.306  0.00  0.00    +0.027 C 
ATOM     46  CG2 VAL A   5      14.799 -12.146 -24.670  0.00  0.00    +0.002 C 
ATOM     47  CG1 VAL A   5      17.296 -11.846 -24.694  0.00  0.00    +0.002 C 
ENDBRANCH  34  45
ENDBRANCH  32  34
ENDBRANCH  29  30
BRANCH  29  48
ATOM     48  CB  VAL A   4      15.025 -10.485 -18.977  0.00  0.00    +0.027 C 
ATOM     49  CG2 VAL A   4      15.282  -9.146 -18.299  0.00  0.00    +0.002 C 
ATOM     50  CG1 VAL A   4      16.000 -11.541 -18.440  0.00  0.00    +0.002 C 
ENDBRANCH  29  48
ENDBRANCH   2  29
TORSDOF 21
REMARK  Name = ../refined-set-2016/3ta1/3ta1_pocket.pdb
REMARK  221 active torsions:
REMARK  status: ('A' for Active; 'I' for Inactive)
REMARK    1  A    between atoms: _1  and  _3
REMARK    2  A    between atoms: _3  and  _4
REMARK    3  A    between atoms: _7  and  _9
REMARK    4  A    between atoms: _9  and  _10
REMARK    5  A    between atoms: _9  and  _12
REMARK    6  A    between atoms: _15  and  _17
REMARK    7  A    between atoms: _17  and  _18
REMARK    8  A    between atoms: _17  and  _20
REMARK    9  A    between atoms: _20  and  _21
REMARK   10  A    between atoms: _24  and  _26
REMARK   11  A    between atoms: _26  and  _27
REMARK   12  A    between atoms: _26  and  _29
REMARK   13  A    between atoms: _29  and  _30
REMARK   14  A    between atoms: _30  and  _31
REMARK   15  A    between atoms: _31  and  _32
REMARK   16  A    between atoms: _41  and  _43
REMARK   17  A    between atoms: _43  and  _44
REMARK   18  A    between atoms: _43  and  _46
REMARK   19  A    between atoms: _49  and  _51
REMARK   20  A    between atoms: _51  and  _52
REMARK   21  A    between atoms: _51  and  _54
REMARK   22  A    between atoms: _54  and  _55
REMARK   23  A    between atoms: _55  and  _56
REMARK   24  A    between atoms: _56  and  _57
REMARK   25  A    between atoms: _57  and  _58
REMARK   26  A    between atoms: _62  and  _64
REMARK   27  A    between atoms: _64  and  _65
REMARK   28  A    between atoms: _67  and  _69
REMARK   29  A    between atoms: _69  and  _70
REMARK   30  A    between atoms: _69  and  _72
REMARK   31  A    between atoms: _72  and  _73
REMARK   32  A    between atoms: _73  and  _74
REMARK   33  A    between atoms: _74  and  _75
REMARK   34  A    between atoms: _84  and  _86
REMARK   35  A    between atoms: _86  and  _87
REMARK   36  A    between atoms: _89  and  _91
REMARK   37  A    between atoms: _91  and  _92
REMARK   38  A    between atoms: _91  and  _94
REMARK   39  A    between atoms: _94  and  _95
REMARK   40  A    between atoms: _95  and  _96
REMARK   41  A    between atoms: _99  and  _101
REMARK   42  A    between atoms: _101  and  _102
REMARK   43  A    between atoms: _101  and  _104
REMARK   44  A    between atoms: _104  and  _105
REMARK   45  A    between atoms: _105  and  _106
REMARK   46  A    between atoms: _111  and  _113
REMARK   47  A    between atoms: _113  and  _114
REMARK   48  A    between atoms: _113  and  _116
REMARK   49  A    between atoms: _116  and  _117
REMARK   50  A    between atoms: _117  and  _118
REMARK   51  A    between atoms: _118  and  _119
REMARK   52  A    between atoms: _119  and  _120
REMARK   53  A    between atoms: _124  and  _126
REMARK   54  A    between atoms: _126  and  _127
REMARK   55  A    between atoms: _126  and  _129
REMARK   56  A    between atoms: _129  and  _130
REMARK   57  A    between atoms: _133  and  _135
REMARK   58  A    between atoms: _135  and  _136
REMARK   59  A    between atoms: _135  and  _138
REMARK   60  A    between atoms: _138  and  _139
REMARK   61  A    between atoms: _142  and  _144
REMARK   62  A    between atoms: _144  and  _145
REMARK   63  A    between atoms: _144  and  _147
REMARK   64  A    between atoms: _147  and  _148
REMARK   65  A    between atoms: _151  and  _153
REMARK   66  A    between atoms: _153  and  _154
REMARK   67  A    between atoms: _153  and  _156
REMARK   68  A    between atoms: _156  and  _157
REMARK   69  A    between atoms: _157  and  _158
REMARK   70  A    between atoms: _163  and  _165
REMARK   71  A    between atoms: _165  and  _166
REMARK   72  A    between atoms: _165  and  _168
REMARK   73  A    between atoms: _168  and  _169
REMARK   74  A    between atoms: _169  and  _170
REMARK   75  A    between atoms: _170  and  _171
REMARK   76  A    between atoms: _171  and  _172
REMARK   77  A    between atoms: _176  and  _178
REMARK   78  A    between atoms: _178  and  _179
REMARK   79  A    between atoms: _178  and  _181
REMARK   80  A    between atoms: _181  and  _182
REMARK   81  A    between atoms: _185  and  _187
REMARK   82  A    between atoms: _187  and  _188
REMARK   83  A    between atoms: _187  and  _190
REMARK   84  A    between atoms: _190  and  _191
REMARK   85  A    between atoms: _191  and  _192
REMARK   86  A    between atoms: _192  and  _193
REMARK   87  A    between atoms: _193  and  _194
REMARK   88  A    between atoms: _198  and  _200
REMARK   89  A    between atoms: _200  and  _201
REMARK   90  A    between atoms: _200  and  _203
REMARK   91  A    between atoms: _203  and  _204
REMARK   92  A    between atoms: _207  and  _209
REMARK   93  A    between atoms: _209  and  _210
REMARK   94  A    between atoms: _212  and  _214
REMARK   95  A    between atoms: _214  and  _215
REMARK   96  A    between atoms: _214  and  _217
REMARK   97  A    between atoms: _217  and  _218
REMARK   98  A    between atoms: _218  and  _219
REMARK   99  A    between atoms: _219  and  _220
REMARK  100  A    between atoms: _220  and  _221
REMARK  101  A    between atoms: _225  and  _227
REMARK  102  A    between atoms: _227  and  _228
REMARK  103  A    between atoms: _227  and  _230
REMARK  104  A    between atoms: _230  and  _231
REMARK  105  A    between atoms: _237  and  _239
REMARK  106  A    between atoms: _239  and  _240
REMARK  107  A    between atoms: _242  and  _244
REMARK  108  A    between atoms: _244  and  _245
REMARK  109  A    between atoms: _244  and  _247
REMARK  110  A    between atoms: _247  and  _248
REMARK  111  A    between atoms: _251  and  _253
REMARK  112  A    between atoms: _253  and  _254
REMARK  113  A    between atoms: _256  and  _258
REMARK  114  A    between atoms: _258  and  _259
REMARK  115  A    between atoms: _258  and  _261
REMARK  116  A    between atoms: _261  and  _262
REMARK  117  A    between atoms: _262  and  _263
REMARK  118  A    between atoms: _263  and  _264
REMARK  119  A    between atoms: _273  and  _275
REMARK  120  A    between atoms: _275  and  _276
REMARK  121  A    between atoms: _275  and  _278
REMARK  122  A    between atoms: _278  and  _279
REMARK  123  A    between atoms: _282  and  _284
REMARK  124  A    between atoms: _284  and  _285
REMARK  125  A    between atoms: _284  and  _287
REMARK  126  A    between atoms: _287  and  _288
REMARK  127  A    between atoms: _294  and  _298
REMARK  128  A    between atoms: _298  and  _299
REMARK  129  A    between atoms: _298  and  _301
REMARK  130  A    between atoms: _301  and  _302
REMARK  131  A    between atoms: _302  and  _303
REMARK  132  A    between atoms: _305  and  _307
REMARK  133  A    between atoms: _307  and  _308
REMARK  134  A    between atoms: _307  and  _310
REMARK  135  A    between atoms: _310  and  _311
REMARK  136  A    between atoms: _311  and  _312
REMARK  137  A    between atoms: _312  and  _313
REMARK  138  A    between atoms: _313  and  _314
REMARK  139  A    between atoms: _318  and  _320
REMARK  140  A    between atoms: _320  and  _321
REMARK  141  A    between atoms: _320  and  _323
REMARK  142  A    between atoms: _323  and  _324
REMARK  143  A    between atoms: _324  and  _325
REMARK  144  A    between atoms: _327  and  _329
REMARK  145  A    between atoms: _329  and  _330
REMARK  146  A    between atoms: _329  and  _332
REMARK  147  A    between atoms: _335  and  _337
REMARK  148  A    between atoms: _337  and  _338
REMARK  149  A    between atoms: _337  and  _340
REMARK  150  A    between atoms: _340  and  _341
REMARK  151  A    between atoms: _347  and  _349
REMARK  152  A    between atoms: _349  and  _350
REMARK  153  A    between atoms: _349  and  _352
REMARK  154  A    between atoms: _355  and  _357
REMARK  155  A    between atoms: _357  and  _358
REMARK  156  A    between atoms: _360  and  _362
REMARK  157  A    between atoms: _362  and  _363
REMARK  158  A    between atoms: _362  and  _365
REMARK  159  A    between atoms: _365  and  _366
REMARK  160  A    between atoms: _366  and  _367
REMARK  161  A    between atoms: _369  and  _371
REMARK  162  A    between atoms: _371  and  _372
REMARK  163  A    between atoms: _371  and  _374
REMARK  164  A    between atoms: _374  and  _375
REMARK  165  A    between atoms: _378  and  _380
REMARK  166  A    between atoms: _380  and  _381
REMARK  167  A    between atoms: _380  and  _383
REMARK  168  A    between atoms: _386  and  _388
REMARK  169  A    between atoms: _388  and  _389
REMARK  170  A    between atoms: _388  and  _391
REMARK  171  A    between atoms: _394  and  _396
REMARK  172  A    between atoms: _396  and  _397
REMARK  173  A    between atoms: _396  and  _399
REMARK  174  A    between atoms: _399  and  _400
REMARK  175  A    between atoms: _400  and  _401
REMARK  176  A    between atoms: _404  and  _406
REMARK  177  A    between atoms: _406  and  _407
REMARK  178  A    between atoms: _406  and  _409
REMARK  179  A    between atoms: _412  and  _414
REMARK  180  A    between atoms: _414  and  _415
REMARK  181  A    between atoms: _414  and  _417
REMARK  182  A    between atoms: _420  and  _422
REMARK  183  A    between atoms: _422  and  _423
REMARK  184  A    between atoms: _422  and  _425
REMARK  185  A    between atoms: _428  and  _430
REMARK  186  A    between atoms: _430  and  _431
REMARK  187  A    between atoms: _430  and  _433
REMARK  188  A    between atoms: _433  and  _434
REMARK  189  A    between atoms: _436  and  _438
REMARK  190  A    between atoms: _438  and  _439
REMARK  191  A    between atoms: _438  and  _441
REMARK  192  A    between atoms: _441  and  _442
REMARK  193  A    between atoms: _444  and  _446
REMARK  194  A    between atoms: _446  and  _447
REMARK  195  A    between atoms: _446  and  _449
REMARK  196  A    between atoms: _452  and  _454
REMARK  197  A    between atoms: _454  and  _455
REMARK  198  A    between atoms: _454  and  _457
REMARK  199  A    between atoms: _457  and  _458
REMARK  200  A    between atoms: _458  and  _459
REMARK  201  A    between atoms: _459  and  _460
REMARK  202  A    between atoms: _460  and  _461
REMARK  203  A    between atoms: _465  and  _467
REMARK  204  A    between atoms: _467  and  _468
REMARK  205  A    between atoms: _467  and  _470
REMARK  206  A    between atoms: _470  and  _471
REMARK  207  A    between atoms: _474  and  _476
REMARK  208  A    between atoms: _476  and  _477
REMARK  209  A    between atoms: _476  and  _479
REMARK  210  A    between atoms: _479  and  _480
REMARK  211  A    between atoms: _480  and  _481
REMARK  212  A    between atoms: _481  and  _482
REMARK  213  A    between atoms: _491  and  _493
REMARK  214  A    between atoms: _493  and  _494
REMARK  215  A    between atoms: _493  and  _496
REMARK  216  A    between atoms: _496  and  _497
REMARK  217  A    between atoms: _500  and  _502
REMARK  218  A    between atoms: _502  and  _503
REMARK  219  A    between atoms: _502  and  _505
REMARK  220  A    between atoms: _505  and  _506
REMARK  221  A    between atoms: _506  and  _507
REMARK                            x       y       z     vdW  Elec       q    Type
REMARK                         _______ _______ _______ _____ _____    ______ ____
ROOT
ATOM      1  CA  ILE A   4       7.940 -15.134  -8.676  0.00  0.00    +0.149 C 
ENDROOT
BRANCH   1   4
ATOM      2  C   LYS A   3       9.078 -16.402 -10.475  0.00  0.00    +0.241 C 
ATOM      3  O   LYS A   3       9.181 -17.426  -9.801  0.00  0.00    -0.273 OA
ATOM      4  N   ILE A   4       8.524 -15.281 -10.012  0.00  0.00    -0.297 N 
ATOM      5  H   ILE A   4       8.505 -14.454 -10.642  0.00  0.00    +0.150 HD
BRANCH   2   6
ATOM      6  CA  LYS A   3       9.710 -16.324 -11.879  0.00  0.00    +0.149 C 
BRANCH   6   8
ATOM      7  C   VAL A   2      11.941 -15.340 -11.482  0.00  0.00    +0.241 C 
ATOM      8  N   LYS A   3      11.148 -16.417 -11.613  0.00  0.00    -0.297 N 
ATOM      9  H   LYS A   3      11.575 -17.361 -11.521  0.00  0.00    +0.150 HD
ATOM     10  O   VAL A   2      11.555 -14.189 -11.660  0.00  0.00    -0.273 OA
BRANCH   7  11
ATOM     11  CA  VAL A   2      13.380 -15.591 -11.108  0.00  0.00    +0.148 C 
BRANCH  11  13
ATOM     12  C   SER A   1      15.041 -15.357 -12.921  0.00  0.00    +0.241 C 
ATOM     13  N   VAL A   2      14.261 -14.791 -11.971  0.00  0.00    -0.297 N 
ATOM     14  H   VAL A   2      14.286 -13.759 -11.848  0.00  0.00    +0.150 HD
ATOM     15  O   SER A   1      15.028 -16.571 -13.161  0.00  0.00    -0.274 OA
BRANCH  12  16
ATOM     16  CA  SER A   1      16.013 -14.432 -13.679  0.00  0.00    +0.174 C 
BRANCH  16  17
ATOM     17  N   SER A   1      17.354 -14.880 -13.323  0.00  0.00    -0.236 NA
ATOM     18  H   SER A   1      17.579 -15.886 -13.459  0.00  0.00    +0.142 HD
ENDBRANCH  16  17
BRANCH  16  19
ATOM     19  CB  SER A   1      15.801 -14.550 -15.179  0.00  0.00    +0.163 C 
BRANCH  19  20
ATOM     20  OG  SER A   1      14.564 -13.945 -15.505  0.00  0.00    -0.380 OA
ATOM     21  H   SER A   1      14.411 -14.014 -16.481  0.00  0.00    +0.211 HD
ENDBRANCH  19  20
ENDBRANCH  16  19
ENDBRANCH  12  16
ENDBRANCH  11  13
BRANCH  11  22
ATOM     22  CB  VAL A   2      13.650 -15.272  -9.603  0.00  0.00    +0.027 C 
ATOM     23  CG2 VAL A   2      12.766 -16.100  -8.683  0.00  0.00    +0.002 C 
ATOM     24  CG1 VAL A   2      15.117 -15.465  -9.232  0.00  0.00    +0.002 C 
ENDBRANCH  11  22
ENDBRANCH   7  11
ENDBRANCH   6   8
BRANCH   6  25
ATOM     25  CB  LYS A   3       9.222 -17.459 -12.792  0.00  0.00    +0.029 C 
BRANCH  25  26
ATOM     26  CG  LYS A   3       7.783 -17.255 -13.265  0.00  0.00    +0.000 C 
BRANCH  26  27
ATOM     27  CD  LYS A   3       7.338 -18.273 -14.311  0.00  0.00    -0.024 C 
BRANCH  27  28
ATOM     28  CE  LYS A   3       7.660 -17.860 -15.727  0.00  0.00    -0.086 C 
BRANCH  28  29
ATOM     29  NZ  LYS A   3       7.042 -18.783 -16.714  0.00  0.00    +0.380 N 
ATOM     30  HZ1 LYS A   3       7.403 -19.746 -16.560  0.00  0.00    -0.089 HD
ATOM     31  HZ2 LYS A   3       6.009 -18.776 -16.594  0.00  0.00    -0.089 HD
ATOM     32  HZ3 LYS A   3       7.283 -18.471 -17.676  0.00  0.00    -0.089 HD
ENDBRANCH  28  29
ENDBRANCH  27  28
ENDBRANCH  26  27
ENDBRANCH  25  26
ENDBRANCH   6  25
ENDBRANCH   2   6
ENDBRANCH   1   4
BRANCH   1  33
ATOM     33  C   ILE A   4       6.917 -16.247  -8.310  0.00  0.00    +0.241 C 
ATOM     34  O   ILE A   4       7.023 -16.819  -7.232  0.00  0.00    -0.273 OA
ATOM     35  N   ARG A   5       5.978 -16.570  -9.209  0.00  0.00    -0.297 N 
ATOM     36  H   ARG A   5       5.982 -16.104 -10.139  0.00  0.00    +0.150 HD
BRANCH  35  37
ATOM     37  CA  ARG A   5       4.938 -17.573  -8.908  0.00  0.00    +0.149 C 
BRANCH  37  38
ATOM     38  C   ARG A   5       5.418 -18.984  -8.618  0.00  0.00    +0.241 C 
ATOM     39  O   ARG A   5       4.807 -19.675  -7.800  0.00  0.00    -0.273 OA
ATOM     40  N   THR A   6       6.531 -19.398  -9.243  0.00  0.00    -0.296 N 
ATOM     41  H   THR A   6       7.022 -18.741  -9.882  0.00  0.00    +0.150 HD
BRANCH  40  42
ATOM     42  CA  THR A   6       7.078 -20.746  -9.056  0.00  0.00    +0.164 C 
BRANCH  42  43
ATOM     43  CB  THR A   6       7.359 -21.377 -10.433  0.00  0.00    +0.136 C 
ATOM     44  CG2 THR A   6       6.105 -21.424 -11.339  0.00  0.00    +0.034 C 
BRANCH  43  45
ATOM     45  OG1 THR A   6       8.399 -20.621 -11.074  0.00  0.00    -0.382 OA
ATOM     46  HG1 THR A   6       8.592 -21.014 -11.962  0.00  0.00    +0.210 HD
ENDBRANCH  43  45
ENDBRANCH  42  43
BRANCH  42  47
ATOM     47  C   THR A   6       8.319 -20.766  -8.170  0.00  0.00    +0.229 C 
ATOM     48  O   THR A   6       8.643 -21.803  -7.590  0.00  0.00    -0.286 OA
ENDBRANCH  42  47
ENDBRANCH  40  42
ENDBRANCH  37  38
BRANCH  37  49
ATOM     49  CB  ARG A   5       3.784 -17.545  -9.912  0.00  0.00    +0.033 C 
BRANCH  49  50
ATOM     50  CG  ARG A   5       4.124 -18.016 -11.287  0.00  0.00    +0.045 C 
BRANCH  50  51
ATOM     51  CD  ARG A   5       2.914 -18.000 -12.186  0.00  0.00    +0.174 C 
BRANCH  51  52
ATOM     52  NE  ARG A   5       3.338 -18.357 -13.535  0.00  0.00    -0.265 N 
ATOM     53  CZ  ARG A   5       3.405 -19.602 -13.979  0.00  0.00    +0.342 C 
ATOM     54  NH2 ARG A   5       3.078 -20.614 -13.186  0.00  0.00    -0.292 N 
ATOM     55 HH21 ARG A   5       2.767 -20.431 -12.211  0.00  0.00    +0.255 HD
ATOM     56 HH22 ARG A   5       3.132 -21.590 -13.540  0.00  0.00    +0.255 HD
ATOM     57  NH1 ARG A   5       3.826 -19.849 -15.209  0.00  0.00    -0.292 N 
ATOM     58 HH11 ARG A   5       3.877 -20.829 -15.554  0.00  0.00    +0.255 HD
ATOM     59 HH12 ARG A   5       4.106 -19.063 -15.830  0.00  0.00    +0.255 HD
ATOM     60  HE  ARG A   5       3.603 -17.590 -14.185  0.00  0.00    +0.259 HD
ENDBRANCH  51  52
ENDBRANCH  50  51
ENDBRANCH  49  50
ENDBRANCH  37  49
ENDBRANCH  35  37
ENDBRANCH   1  33
BRANCH   1  61
ATOM     61  CB  ILE A   4       7.407 -13.677  -8.454  0.00  0.00    +0.027 C 
ATOM     62  CG2 ILE A   4       6.509 -13.590  -7.185  0.00  0.00    +0.002 C 
BRANCH  61  63
ATOM     63  CG1 ILE A   4       8.599 -12.685  -8.366  0.00  0.00    +0.002 C 
ATOM     64  CD1 ILE A   4       8.235 -11.152  -8.367  0.00  0.00    +0.000 C 
ENDBRANCH  61  63
ENDBRANCH   1  61
TORSDOF 28
REMARK  Name = ../refined-set-2016/3ta1/3ta1_pocket.pdb
REMARK  221 active torsions:
REMARK  status: ('A' for Active; 'I' for Inactive)
REMARK    1  A    between atoms: _1  and  _3
REMARK    2  A    between atoms: _3  and  _4
REMARK    3  A    between atoms: _7  and  _9
REMARK    4  A    between atoms: _9  and  _10
REMARK    5  A    between atoms: _9  and  _12
REMARK    6  A    between atoms: _15  and  _17
REMARK    7  A    between atoms: _17  and  _18
REMARK    8  A    between atoms: _17  and  _20
REMARK    9  A    between atoms: _20  and  _21
REMARK   10  A    between atoms: _24  and  _26
REMARK   11  A    between atoms: _26  and  _27
REMARK   12  A    between atoms: _26  and  _29
REMARK   13  A    between atoms: _29  and  _30
REMARK   14  A    between atoms: _30  and  _31
REMARK   15  A    between atoms: _31  and  _32
REMARK   16  A    between atoms: _41  and  _43
REMARK   17  A    between atoms: _43  and  _44
REMARK   18  A    between atoms: _43  and  _46
REMARK   19  A    between atoms: _49  and  _51
REMARK   20  A    between atoms: _51  and  _52
REMARK   21  A    between atoms: _51  and  _54
REMARK   22  A    between atoms: _54  and  _55
REMARK   23  A    between atoms: _55  and  _56
REMARK   24  A    between atoms: _56  and  _57
REMARK   25  A    between atoms: _57  and  _58
REMARK   26  A    between atoms: _62  and  _64
REMARK   27  A    between atoms: _64  and  _65
REMARK   28  A    between atoms: _67  and  _69
REMARK   29  A    between atoms: _69  and  _70
REMARK   30  A    between atoms: _69  and  _72
REMARK   31  A    between atoms: _72  and  _73
REMARK   32  A    between atoms: _73  and  _74
REMARK   33  A    between atoms: _74  and  _75
REMARK   34  A    between atoms: _84  and  _86
REMARK   35  A    between atoms: _86  and  _87
REMARK   36  A    between atoms: _89  and  _91
REMARK   37  A    between atoms: _91  and  _92
REMARK   38  A    between atoms: _91  and  _94
REMARK   39  A    between atoms: _94  and  _95
REMARK   40  A    between atoms: _95  and  _96
REMARK   41  A    between atoms: _99  and  _101
REMARK   42  A    between atoms: _101  and  _102
REMARK   43  A    between atoms: _101  and  _104
REMARK   44  A    between atoms: _104  and  _105
REMARK   45  A    between atoms: _105  and  _106
REMARK   46  A    between atoms: _111  and  _113
REMARK   47  A    between atoms: _113  and  _114
REMARK   48  A    between atoms: _113  and  _116
REMARK   49  A    between atoms: _116  and  _117
REMARK   50  A    between atoms: _117  and  _118
REMARK   51  A    between atoms: _118  and  _119
REMARK   52  A    between atoms: _119  and  _120
REMARK   53  A    between atoms: _124  and  _126
REMARK   54  A    between atoms: _126  and  _127
REMARK   55  A    between atoms: _126  and  _129
REMARK   56  A    between atoms: _129  and  _130
REMARK   57  A    between atoms: _133  and  _135
REMARK   58  A    between atoms: _135  and  _136
REMARK   59  A    between atoms: _135  and  _138
REMARK   60  A    between atoms: _138  and  _139
REMARK   61  A    between atoms: _142  and  _144
REMARK   62  A    between atoms: _144  and  _145
REMARK   63  A    between atoms: _144  and  _147
REMARK   64  A    between atoms: _147  and  _148
REMARK   65  A    between atoms: _151  and  _153
REMARK   66  A    between atoms: _153  and  _154
REMARK   67  A    between atoms: _153  and  _156
REMARK   68  A    between atoms: _156  and  _157
REMARK   69  A    between atoms: _157  and  _158
REMARK   70  A    between atoms: _163  and  _165
REMARK   71  A    between atoms: _165  and  _166
REMARK   72  A    between atoms: _165  and  _168
REMARK   73  A    between atoms: _168  and  _169
REMARK   74  A    between atoms: _169  and  _170
REMARK   75  A    between atoms: _170  and  _171
REMARK   76  A    between atoms: _171  and  _172
REMARK   77  A    between atoms: _176  and  _178
REMARK   78  A    between atoms: _178  and  _179
REMARK   79  A    between atoms: _178  and  _181
REMARK   80  A    between atoms: _181  and  _182
REMARK   81  A    between atoms: _185  and  _187
REMARK   82  A    between atoms: _187  and  _188
REMARK   83  A    between atoms: _187  and  _190
REMARK   84  A    between atoms: _190  and  _191
REMARK   85  A    between atoms: _191  and  _192
REMARK   86  A    between atoms: _192  and  _193
REMARK   87  A    between atoms: _193  and  _194
REMARK   88  A    between atoms: _198  and  _200
REMARK   89  A    between atoms: _200  and  _201
REMARK   90  A    between atoms: _200  and  _203
REMARK   91  A    between atoms: _203  and  _204
REMARK   92  A    between atoms: _207  and  _209
REMARK   93  A    between atoms: _209  and  _210
REMARK   94  A    between atoms: _212  and  _214
REMARK   95  A    between atoms: _214  and  _215
REMARK   96  A    between atoms: _214  and  _217
REMARK   97  A    between atoms: _217  and  _218
REMARK   98  A    between atoms: _218  and  _219
REMARK   99  A    between atoms: _219  and  _220
REMARK  100  A    between atoms: _220  and  _221
REMARK  101  A    between atoms: _225  and  _227
REMARK  102  A    between atoms: _227  and  _228
REMARK  103  A    between atoms: _227  and  _230
REMARK  104  A    between atoms: _230  and  _231
REMARK  105  A    between atoms: _237  and  _239
REMARK  106  A    between atoms: _239  and  _240
REMARK  107  A    between atoms: _242  and  _244
REMARK  108  A    between atoms: _244  and  _245
REMARK  109  A    between atoms: _244  and  _247
REMARK  110  A    between atoms: _247  and  _248
REMARK  111  A    between atoms: _251  and  _253
REMARK  112  A    between atoms: _253  and  _254
REMARK  113  A    between atoms: _256  and  _258
REMARK  114  A    between atoms: _258  and  _259
REMARK  115  A    between atoms: _258  and  _261
REMARK  116  A    between atoms: _261  and  _262
REMARK  117  A    between atoms: _262  and  _263
REMARK  118  A    between atoms: _263  and  _264
REMARK  119  A    between atoms: _273  and  _275
REMARK  120  A    between atoms: _275  and  _276
REMARK  121  A    between atoms: _275  and  _278
REMARK  122  A    between atoms: _278  and  _279
REMARK  123  A    between atoms: _282  and  _284
REMARK  124  A    between atoms: _284  and  _285
REMARK  125  A    between atoms: _284  and  _287
REMARK  126  A    between atoms: _287  and  _288
REMARK  127  A    between atoms: _294  and  _298
REMARK  128  A    between atoms: _298  and  _299
REMARK  129  A    between atoms: _298  and  _301
REMARK  130  A    between atoms: _301  and  _302
REMARK  131  A    between atoms: _302  and  _303
REMARK  132  A    between atoms: _305  and  _307
REMARK  133  A    between atoms: _307  and  _308
REMARK  134  A    between atoms: _307  and  _310
REMARK  135  A    between atoms: _310  and  _311
REMARK  136  A    between atoms: _311  and  _312
REMARK  137  A    between atoms: _312  and  _313
REMARK  138  A    between atoms: _313  and  _314
REMARK  139  A    between atoms: _318  and  _320
REMARK  140  A    between atoms: _320  and  _321
REMARK  141  A    between atoms: _320  and  _323
REMARK  142  A    between atoms: _323  and  _324
REMARK  143  A    between atoms: _324  and  _325
REMARK  144  A    between atoms: _327  and  _329
REMARK  145  A    between atoms: _329  and  _330
REMARK  146  A    between atoms: _329  and  _332
REMARK  147  A    between atoms: _335  and  _337
REMARK  148  A    between atoms: _337  and  _338
REMARK  149  A    between atoms: _337  and  _340
REMARK  150  A    between atoms: _340  and  _341
REMARK  151  A    between atoms: _347  and  _349
REMARK  152  A    between atoms: _349  and  _350
REMARK  153  A    between atoms: _349  and  _352
REMARK  154  A    between atoms: _355  and  _357
REMARK  155  A    between atoms: _357  and  _358
REMARK  156  A    between atoms: _360  and  _362
REMARK  157  A    between atoms: _362  and  _363
REMARK  158  A    between atoms: _362  and  _365
REMARK  159  A    between atoms: _365  and  _366
REMARK  160  A    between atoms: _366  and  _367
REMARK  161  A    between atoms: _369  and  _371
REMARK  162  A    between atoms: _371  and  _372
REMARK  163  A    between atoms: _371  and  _374
REMARK  164  A    between atoms: _374  and  _375
REMARK  165  A    between atoms: _378  and  _380
REMARK  166  A    between atoms: _380  and  _381
REMARK  167  A    between atoms: _380  and  _383
REMARK  168  A    between atoms: _386  and  _388
REMARK  169  A    between atoms: _388  and  _389
REMARK  170  A    between atoms: _388  and  _391
REMARK  171  A    between atoms: _394  and  _396
REMARK  172  A    between atoms: _396  and  _397
REMARK  173  A    between atoms: _396  and  _399
REMARK  174  A    between atoms: _399  and  _400
REMARK  175  A    between atoms: _400  and  _401
REMARK  176  A    between atoms: _404  and  _406
REMARK  177  A    between atoms: _406  and  _407
REMARK  178  A    between atoms: _406  and  _409
REMARK  179  A    between atoms: _412  and  _414
REMARK  180  A    between atoms: _414  and  _415
REMARK  181  A    between atoms: _414  and  _417
REMARK  182  A    between atoms: _420  and  _422
REMARK  183  A    between atoms: _422  and  _423
REMARK  184  A    between atoms: _422  and  _425
REMARK  185  A    between atoms: _428  and  _430
REMARK  186  A    between atoms: _430  and  _431
REMARK  187  A    between atoms: _430  and  _433
REMARK  188  A    between atoms: _433  and  _434
REMARK  189  A    between atoms: _436  and  _438
REMARK  190  A    between atoms: _438  and  _439
REMARK  191  A    between atoms: _438  and  _441
REMARK  192  A    between atoms: _441  and  _442
REMARK  193  A    between atoms: _444  and  _446
REMARK  194  A    between atoms: _446  and  _447
REMARK  195  A    between atoms: _446  and  _449
REMARK  196  A    between atoms: _452  and  _454
REMARK  197  A    between atoms: _454  and  _455
REMARK  198  A    between atoms: _454  and  _457
REMARK  199  A    between atoms: _457  and  _458
REMARK  200  A    between atoms: _458  and  _459
REMARK  201  A    between atoms: _459  and  _460
REMARK  202  A    between atoms: _460  and  _461
REMARK  203  A    between atoms: _465  and  _467
REMARK  204  A    between atoms: _467  and  _468
REMARK  205  A    between atoms: _467  and  _470
REMARK  206  A    between atoms: _470  and  _471
REMARK  207  A    between atoms: _474  and  _476
REMARK  208  A    between atoms: _476  and  _477
REMARK  209  A    between atoms: _476  and  _479
REMARK  210  A    between atoms: _479  and  _480
REMARK  211  A    between atoms: _480  and  _481
REMARK  212  A    between atoms: _481  and  _482
REMARK  213  A    between atoms: _491  and  _493
REMARK  214  A    between atoms: _493  and  _494
REMARK  215  A    between atoms: _493  and  _496
REMARK  216  A    between atoms: _496  and  _497
REMARK  217  A    between atoms: _500  and  _502
REMARK  218  A    between atoms: _502  and  _503
REMARK  219  A    between atoms: _502  and  _505
REMARK  220  A    between atoms: _505  and  _506
REMARK  221  A    between atoms: _506  and  _507
REMARK                            x       y       z     vdW  Elec       q    Type
REMARK                         _______ _______ _______ _____ _____    ______ ____
ROOT
ATOM      1  CA  GLU A   1      16.928 -19.122 -14.738  0.00  0.00    +0.134 C 
ENDROOT
BRANCH   1   2
ATOM      2  N   GLU A   1      16.203 -18.926 -13.476  0.00  0.00    -0.239 NA
ATOM      3  H   GLU A   1      15.682 -18.032 -13.370  0.00  0.00    +0.142 HD
ENDBRANCH   1   2
BRANCH   1   4
ATOM      4  C   GLU A   1      18.323 -18.457 -14.670  0.00  0.00    +0.224 C 
ATOM      5  O   GLU A   1      18.454 -17.264 -14.392  0.00  0.00    -0.287 OA
ENDBRANCH   1   4
BRANCH   1   6
ATOM      6  CB  GLU A   1      16.108 -18.630 -15.940  0.00  0.00    +0.037 C 
BRANCH   6   7
ATOM      7  CG  GLU A   1      16.659 -19.128 -17.268  0.00  0.00    +0.116 C 
BRANCH   7   8
ATOM      8  CD  GLU A   1      15.799 -18.878 -18.493  0.00  0.00    +0.365 C 
ATOM      9  OE2 GLU A   1      14.827 -18.090 -18.406  0.00  0.00    -0.246 OA
ATOM     10  OE1 GLU A   1      16.125 -19.453 -19.557  0.00  0.00    -0.246 OA
ENDBRANCH   7   8
ENDBRANCH   6   7
ENDBRANCH   1   6
TORSDOF 5
REMARK  Name = ../refined-set-2016/3ta1/3ta1_pocket.pdb
REMARK  221 active torsions:
REMARK  status: ('A' for Active; 'I' for Inactive)
REMARK    1  A    between atoms: _1  and  _3
REMARK    2  A    between atoms: _3  and  _4
REMARK    3  A    between atoms: _7  and  _9
REMARK    4  A    between atoms: _9  and  _10
REMARK    5  A    between atoms: _9  and  _12
REMARK    6  A    between atoms: _15  and  _17
REMARK    7  A    between atoms: _17  and  _18
REMARK    8  A    between atoms: _17  and  _20
REMARK    9  A    between atoms: _20  and  _21
REMARK   10  A    between atoms: _24  and  _26
REMARK   11  A    between atoms: _26  and  _27
REMARK   12  A    between atoms: _26  and  _29
REMARK   13  A    between atoms: _29  and  _30
REMARK   14  A    between atoms: _30  and  _31
REMARK   15  A    between atoms: _31  and  _32
REMARK   16  A    between atoms: _41  and  _43
REMARK   17  A    between atoms: _43  and  _44
REMARK   18  A    between atoms: _43  and  _46
REMARK   19  A    between atoms: _49  and  _51
REMARK   20  A    between atoms: _51  and  _52
REMARK   21  A    between atoms: _51  and  _54
REMARK   22  A    between atoms: _54  and  _55
REMARK   23  A    between atoms: _55  and  _56
REMARK   24  A    between atoms: _56  and  _57
REMARK   25  A    between atoms: _57  and  _58
REMARK   26  A    between atoms: _62  and  _64
REMARK   27  A    between atoms: _64  and  _65
REMARK   28  A    between atoms: _67  and  _69
REMARK   29  A    between atoms: _69  and  _70
REMARK   30  A    between atoms: _69  and  _72
REMARK   31  A    between atoms: _72  and  _73
REMARK   32  A    between atoms: _73  and  _74
REMARK   33  A    between atoms: _74  and  _75
REMARK   34  A    between atoms: _84  and  _86
REMARK   35  A    between atoms: _86  and  _87
REMARK   36  A    between atoms: _89  and  _91
REMARK   37  A    between atoms: _91  and  _92
REMARK   38  A    between atoms: _91  and  _94
REMARK   39  A    between atoms: _94  and  _95
REMARK   40  A    between atoms: _95  and  _96
REMARK   41  A    between atoms: _99  and  _101
REMARK   42  A    between atoms: _101  and  _102
REMARK   43  A    between atoms: _101  and  _104
REMARK   44  A    between atoms: _104  and  _105
REMARK   45  A    between atoms: _105  and  _106
REMARK   46  A    between atoms: _111  and  _113
REMARK   47  A    between atoms: _113  and  _114
REMARK   48  A    between atoms: _113  and  _116
REMARK   49  A    between atoms: _116  and  _117
REMARK   50  A    between atoms: _117  and  _118
REMARK   51  A    between atoms: _118  and  _119
REMARK   52  A    between atoms: _119  and  _120
REMARK   53  A    between atoms: _124  and  _126
REMARK   54  A    between atoms: _126  and  _127
REMARK   55  A    between atoms: _126  and  _129
REMARK   56  A    between atoms: _129  and  _130
REMARK   57  A    between atoms: _133  and  _135
REMARK   58  A    between atoms: _135  and  _136
REMARK   59  A    between atoms: _135  and  _138
REMARK   60  A    between atoms: _138  and  _139
REMARK   61  A    between atoms: _142  and  _144
REMARK   62  A    between atoms: _144  and  _145
REMARK   63  A    between atoms: _144  and  _147
REMARK   64  A    between atoms: _147  and  _148
REMARK   65  A    between atoms: _151  and  _153
REMARK   66  A    between atoms: _153  and  _154
REMARK   67  A    between atoms: _153  and  _156
REMARK   68  A    between atoms: _156  and  _157
REMARK   69  A    between atoms: _157  and  _158
REMARK   70  A    between atoms: _163  and  _165
REMARK   71  A    between atoms: _165  and  _166
REMARK   72  A    between atoms: _165  and  _168
REMARK   73  A    between atoms: _168  and  _169
REMARK   74  A    between atoms: _169  and  _170
REMARK   75  A    between atoms: _170  and  _171
REMARK   76  A    between atoms: _171  and  _172
REMARK   77  A    between atoms: _176  and  _178
REMARK   78  A    between atoms: _178  and  _179
REMARK   79  A    between atoms: _178  and  _181
REMARK   80  A    between atoms: _181  and  _182
REMARK   81  A    between atoms: _185  and  _187
REMARK   82  A    between atoms: _187  and  _188
REMARK   83  A    between atoms: _187  and  _190
REMARK   84  A    between atoms: _190  and  _191
REMARK   85  A    between atoms: _191  and  _192
REMARK   86  A    between atoms: _192  and  _193
REMARK   87  A    between atoms: _193  and  _194
REMARK   88  A    between atoms: _198  and  _200
REMARK   89  A    between atoms: _200  and  _201
REMARK   90  A    between atoms: _200  and  _203
REMARK   91  A    between atoms: _203  and  _204
REMARK   92  A    between atoms: _207  and  _209
REMARK   93  A    between atoms: _209  and  _210
REMARK   94  A    between atoms: _212  and  _214
REMARK   95  A    between atoms: _214  and  _215
REMARK   96  A    between atoms: _214  and  _217
REMARK   97  A    between atoms: _217  and  _218
REMARK   98  A    between atoms: _218  and  _219
REMARK   99  A    between atoms: _219  and  _220
REMARK  100  A    between atoms: _220  and  _221
REMARK  101  A    between atoms: _225  and  _227
REMARK  102  A    between atoms: _227  and  _228
REMARK  103  A    between atoms: _227  and  _230
REMARK  104  A    between atoms: _230  and  _231
REMARK  105  A    between atoms: _237  and  _239
REMARK  106  A    between atoms: _239  and  _240
REMARK  107  A    between atoms: _242  and  _244
REMARK  108  A    between atoms: _244  and  _245
REMARK  109  A    between atoms: _244  and  _247
REMARK  110  A    between atoms: _247  and  _248
REMARK  111  A    between atoms: _251  and  _253
REMARK  112  A    between atoms: _253  and  _254
REMARK  113  A    between atoms: _256  and  _258
REMARK  114  A    between atoms: _258  and  _259
REMARK  115  A    between atoms: _258  and  _261
REMARK  116  A    between atoms: _261  and  _262
REMARK  117  A    between atoms: _262  and  _263
REMARK  118  A    between atoms: _263  and  _264
REMARK  119  A    between atoms: _273  and  _275
REMARK  120  A    between atoms: _275  and  _276
REMARK  121  A    between atoms: _275  and  _278
REMARK  122  A    between atoms: _278  and  _279
REMARK  123  A    between atoms: _282  and  _284
REMARK  124  A    between atoms: _284  and  _285
REMARK  125  A    between atoms: _284  and  _287
REMARK  126  A    between atoms: _287  and  _288
REMARK  127  A    between atoms: _294  and  _298
REMARK  128  A    between atoms: _298  and  _299
REMARK  129  A    between atoms: _298  and  _301
REMARK  130  A    between atoms: _301  and  _302
REMARK  131  A    between atoms: _302  and  _303
REMARK  132  A    between atoms: _305  and  _307
REMARK  133  A    between atoms: _307  and  _308
REMARK  134  A    between atoms: _307  and  _310
REMARK  135  A    between atoms: _310  and  _311
REMARK  136  A    between atoms: _311  and  _312
REMARK  137  A    between atoms: _312  and  _313
REMARK  138  A    between atoms: _313  and  _314
REMARK  139  A    between atoms: _318  and  _320
REMARK  140  A    between atoms: _320  and  _321
REMARK  141  A    between atoms: _320  and  _323
REMARK  142  A    between atoms: _323  and  _324
REMARK  143  A    between atoms: _324  and  _325
REMARK  144  A    between atoms: _327  and  _329
REMARK  145  A    between atoms: _329  and  _330
REMARK  146  A    between atoms: _329  and  _332
REMARK  147  A    between atoms: _335  and  _337
REMARK  148  A    between atoms: _337  and  _338
REMARK  149  A    between atoms: _337  and  _340
REMARK  150  A    between atoms: _340  and  _341
REMARK  151  A    between atoms: _347  and  _349
REMARK  152  A    between atoms: _349  and  _350
REMARK  153  A    between atoms: _349  and  _352
REMARK  154  A    between atoms: _355  and  _357
REMARK  155  A    between atoms: _357  and  _358
REMARK  156  A    between atoms: _360  and  _362
REMARK  157  A    between atoms: _362  and  _363
REMARK  158  A    between atoms: _362  and  _365
REMARK  159  A    between atoms: _365  and  _366
REMARK  160  A    between atoms: _366  and  _367
REMARK  161  A    between atoms: _369  and  _371
REMARK  162  A    between atoms: _371  and  _372
REMARK  163  A    between atoms: _371  and  _374
REMARK  164  A    between atoms: _374  and  _375
REMARK  165  A    between atoms: _378  and  _380
REMARK  166  A    between atoms: _380  and  _381
REMARK  167  A    between atoms: _380  and  _383
REMARK  168  A    between atoms: _386  and  _388
REMARK  169  A    between atoms: _388  and  _389
REMARK  170  A    between atoms: _388  and  _391
REMARK  171  A    between atoms: _394  and  _396
REMARK  172  A    between atoms: _396  and  _397
REMARK  173  A    between atoms: _396  and  _399
REMARK  174  A    between atoms: _399  and  _400
REMARK  175  A    between atoms: _400  and  _401
REMARK  176  A    between atoms: _404  and  _406
REMARK  177  A    between atoms: _406  and  _407
REMARK  178  A    between atoms: _406  and  _409
REMARK  179  A    between atoms: _412  and  _414
REMARK  180  A    between atoms: _414  and  _415
REMARK  181  A    between atoms: _414  and  _417
REMARK  182  A    between atoms: _420  and  _422
REMARK  183  A    between atoms: _422  and  _423
REMARK  184  A    between atoms: _422  and  _425
REMARK  185  A    between atoms: _428  and  _430
REMARK  186  A    between atoms: _430  and  _431
REMARK  187  A    between atoms: _430  and  _433
REMARK  188  A    between atoms: _433  and  _434
REMARK  189  A    between atoms: _436  and  _438
REMARK  190  A    between atoms: _438  and  _439
REMARK  191  A    between atoms: _438  and  _441
REMARK  192  A    between atoms: _441  and  _442
REMARK  193  A    between atoms: _444  and  _446
REMARK  194  A    between atoms: _446  and  _447
REMARK  195  A    between atoms: _446  and  _449
REMARK  196  A    between atoms: _452  and  _454
REMARK  197  A    between atoms: _454  and  _455
REMARK  198  A    between atoms: _454  and  _457
REMARK  199  A    between atoms: _457  and  _458
REMARK  200  A    between atoms: _458  and  _459
REMARK  201  A    between atoms: _459  and  _460
REMARK  202  A    between atoms: _460  and  _461
REMARK  203  A    between atoms: _465  and  _467
REMARK  204  A    between atoms: _467  and  _468
REMARK  205  A    between atoms: _467  and  _470
REMARK  206  A    between atoms: _470  and  _471
REMARK  207  A    between atoms: _474  and  _476
REMARK  208  A    between atoms: _476  and  _477
REMARK  209  A    between atoms: _476  and  _479
REMARK  210  A    between atoms: _479  and  _480
REMARK  211  A    between atoms: _480  and  _481
REMARK  212  A    between atoms: _481  and  _482
REMARK  213  A    between atoms: _491  and  _493
REMARK  214  A    between atoms: _493  and  _494
REMARK  215  A    between atoms: _493  and  _496
REMARK  216  A    between atoms: _496  and  _497
REMARK  217  A    between atoms: _500  and  _502
REMARK  218  A    between atoms: _502  and  _503
REMARK  219  A    between atoms: _502  and  _505
REMARK  220  A    between atoms: _505  and  _506
REMARK  221  A    between atoms: _506  and  _507
REMARK                            x       y       z     vdW  Elec       q    Type
REMARK                         _______ _______ _______ _____ _____    ______ ____
ROOT
ATOM      1  O   HOH     1       1.643  -9.520 -17.446  0.00  0.00    +0.000 OA
ENDROOT
TORSDOF 0
REMARK  Name = ../refined-set-2016/3ta1/3ta1_pocket.pdb
REMARK  221 active torsions:
REMARK  status: ('A' for Active; 'I' for Inactive)
REMARK    1  A    between atoms: _1  and  _3
REMARK    2  A    between atoms: _3  and  _4
REMARK    3  A    between atoms: _7  and  _9
REMARK    4  A    between atoms: _9  and  _10
REMARK    5  A    between atoms: _9  and  _12
REMARK    6  A    between atoms: _15  and  _17
REMARK    7  A    between atoms: _17  and  _18
REMARK    8  A    between atoms: _17  and  _20
REMARK    9  A    between atoms: _20  and  _21
REMARK   10  A    between atoms: _24  and  _26
REMARK   11  A    between atoms: _26  and  _27
REMARK   12  A    between atoms: _26  and  _29
REMARK   13  A    between atoms: _29  and  _30
REMARK   14  A    between atoms: _30  and  _31
REMARK   15  A    between atoms: _31  and  _32
REMARK   16  A    between atoms: _41  and  _43
REMARK   17  A    between atoms: _43  and  _44
REMARK   18  A    between atoms: _43  and  _46
REMARK   19  A    between atoms: _49  and  _51
REMARK   20  A    between atoms: _51  and  _52
REMARK   21  A    between atoms: _51  and  _54
REMARK   22  A    between atoms: _54  and  _55
REMARK   23  A    between atoms: _55  and  _56
REMARK   24  A    between atoms: _56  and  _57
REMARK   25  A    between atoms: _57  and  _58
REMARK   26  A    between atoms: _62  and  _64
REMARK   27  A    between atoms: _64  and  _65
REMARK   28  A    between atoms: _67  and  _69
REMARK   29  A    between atoms: _69  and  _70
REMARK   30  A    between atoms: _69  and  _72
REMARK   31  A    between atoms: _72  and  _73
REMARK   32  A    between atoms: _73  and  _74
REMARK   33  A    between atoms: _74  and  _75
REMARK   34  A    between atoms: _84  and  _86
REMARK   35  A    between atoms: _86  and  _87
REMARK   36  A    between atoms: _89  and  _91
REMARK   37  A    between atoms: _91  and  _92
REMARK   38  A    between atoms: _91  and  _94
REMARK   39  A    between atoms: _94  and  _95
REMARK   40  A    between atoms: _95  and  _96
REMARK   41  A    between atoms: _99  and  _101
REMARK   42  A    between atoms: _101  and  _102
REMARK   43  A    between atoms: _101  and  _104
REMARK   44  A    between atoms: _104  and  _105
REMARK   45  A    between atoms: _105  and  _106
REMARK   46  A    between atoms: _111  and  _113
REMARK   47  A    between atoms: _113  and  _114
REMARK   48  A    between atoms: _113  and  _116
REMARK   49  A    between atoms: _116  and  _117
REMARK   50  A    between atoms: _117  and  _118
REMARK   51  A    between atoms: _118  and  _119
REMARK   52  A    between atoms: _119  and  _120
REMARK   53  A    between atoms: _124  and  _126
REMARK   54  A    between atoms: _126  and  _127
REMARK   55  A    between atoms: _126  and  _129
REMARK   56  A    between atoms: _129  and  _130
REMARK   57  A    between atoms: _133  and  _135
REMARK   58  A    between atoms: _135  and  _136
REMARK   59  A    between atoms: _135  and  _138
REMARK   60  A    between atoms: _138  and  _139
REMARK   61  A    between atoms: _142  and  _144
REMARK   62  A    between atoms: _144  and  _145
REMARK   63  A    between atoms: _144  and  _147
REMARK   64  A    between atoms: _147  and  _148
REMARK   65  A    between atoms: _151  and  _153
REMARK   66  A    between atoms: _153  and  _154
REMARK   67  A    between atoms: _153  and  _156
REMARK   68  A    between atoms: _156  and  _157
REMARK   69  A    between atoms: _157  and  _158
REMARK   70  A    between atoms: _163  and  _165
REMARK   71  A    between atoms: _165  and  _166
REMARK   72  A    between atoms: _165  and  _168
REMARK   73  A    between atoms: _168  and  _169
REMARK   74  A    between atoms: _169  and  _170
REMARK   75  A    between atoms: _170  and  _171
REMARK   76  A    between atoms: _171  and  _172
REMARK   77  A    between atoms: _176  and  _178
REMARK   78  A    between atoms: _178  and  _179
REMARK   79  A    between atoms: _178  and  _181
REMARK   80  A    between atoms: _181  and  _182
REMARK   81  A    between atoms: _185  and  _187
REMARK   82  A    between atoms: _187  and  _188
REMARK   83  A    between atoms: _187  and  _190
REMARK   84  A    between atoms: _190  and  _191
REMARK   85  A    between atoms: _191  and  _192
REMARK   86  A    between atoms: _192  and  _193
REMARK   87  A    between atoms: _193  and  _194
REMARK   88  A    between atoms: _198  and  _200
REMARK   89  A    between atoms: _200  and  _201
REMARK   90  A    between atoms: _200  and  _203
REMARK   91  A    between atoms: _203  and  _204
REMARK   92  A    between atoms: _207  and  _209
REMARK   93  A    between atoms: _209  and  _210
REMARK   94  A    between atoms: _212  and  _214
REMARK   95  A    between atoms: _214  and  _215
REMARK   96  A    between atoms: _214  and  _217
REMARK   97  A    between atoms: _217  and  _218
REMARK   98  A    between atoms: _218  and  _219
REMARK   99  A    between atoms: _219  and  _220
REMARK  100  A    between atoms: _220  and  _221
REMARK  101  A    between atoms: _225  and  _227
REMARK  102  A    between atoms: _227  and  _228
REMARK  103  A    between atoms: _227  and  _230
REMARK  104  A    between atoms: _230  and  _231
REMARK  105  A    between atoms: _237  and  _239
REMARK  106  A    between atoms: _239  and  _240
REMARK  107  A    between atoms: _242  and  _244
REMARK  108  A    between atoms: _244  and  _245
REMARK  109  A    between atoms: _244  and  _247
REMARK  110  A    between atoms: _247  and  _248
REMARK  111  A    between atoms: _251  and  _253
REMARK  112  A    between atoms: _253  and  _254
REMARK  113  A    between atoms: _256  and  _258
REMARK  114  A    between atoms: _258  and  _259
REMARK  115  A    between atoms: _258  and  _261
REMARK  116  A    between atoms: _261  and  _262
REMARK  117  A    between atoms: _262  and  _263
REMARK  118  A    between atoms: _263  and  _264
REMARK  119  A    between atoms: _273  and  _275
REMARK  120  A    between atoms: _275  and  _276
REMARK  121  A    between atoms: _275  and  _278
REMARK  122  A    between atoms: _278  and  _279
REMARK  123  A    between atoms: _282  and  _284
REMARK  124  A    between atoms: _284  and  _285
REMARK  125  A    between atoms: _284  and  _287
REMARK  126  A    between atoms: _287  and  _288
REMARK  127  A    between atoms: _294  and  _298
REMARK  128  A    between atoms: _298  and  _299
REMARK  129  A    between atoms: _298  and  _301
REMARK  130  A    between atoms: _301  and  _302
REMARK  131  A    between atoms: _302  and  _303
REMARK  132  A    between atoms: _305  and  _307
REMARK  133  A    between atoms: _307  and  _308
REMARK  134  A    between atoms: _307  and  _310
REMARK  135  A    between atoms: _310  and  _311
REMARK  136  A    between atoms: _311  and  _312
REMARK  137  A    between atoms: _312  and  _313
REMARK  138  A    between atoms: _313  and  _314
REMARK  139  A    between atoms: _318  and  _320
REMARK  140  A    between atoms: _320  and  _321
REMARK  141  A    between atoms: _320  and  _323
REMARK  142  A    between atoms: _323  and  _324
REMARK  143  A    between atoms: _324  and  _325
REMARK  144  A    between atoms: _327  and  _329
REMARK  145  A    between atoms: _329  and  _330
REMARK  146  A    between atoms: _329  and  _332
REMARK  147  A    between atoms: _335  and  _337
REMARK  148  A    between atoms: _337  and  _338
REMARK  149  A    between atoms: _337  and  _340
REMARK  150  A    between atoms: _340  and  _341
REMARK  151  A    between atoms: _347  and  _349
REMARK  152  A    between atoms: _349  and  _350
REMARK  153  A    between atoms: _349  and  _352
REMARK  154  A    between atoms: _355  and  _357
REMARK  155  A    between atoms: _357  and  _358
REMARK  156  A    between atoms: _360  and  _362
REMARK  157  A    between atoms: _362  and  _363
REMARK  158  A    between atoms: _362  and  _365
REMARK  159  A    between atoms: _365  and  _366
REMARK  160  A    between atoms: _366  and  _367
REMARK  161  A    between atoms: _369  and  _371
REMARK  162  A    between atoms: _371  and  _372
REMARK  163  A    between atoms: _371  and  _374
REMARK  164  A    between atoms: _374  and  _375
REMARK  165  A    between atoms: _378  and  _380
REMARK  166  A    between atoms: _380  and  _381
REMARK  167  A    between atoms: _380  and  _383
REMARK  168  A    between atoms: _386  and  _388
REMARK  169  A    between atoms: _388  and  _389
REMARK  170  A    between atoms: _388  and  _391
REMARK  171  A    between atoms: _394  and  _396
REMARK  172  A    between atoms: _396  and  _397
REMARK  173  A    between atoms: _396  and  _399
REMARK  174  A    between atoms: _399  and  _400
REMARK  175  A    between atoms: _400  and  _401
REMARK  176  A    between atoms: _404  and  _406
REMARK  177  A    between atoms: _406  and  _407
REMARK  178  A    between atoms: _406  and  _409
REMARK  179  A    between atoms: _412  and  _414
REMARK  180  A    between atoms: _414  and  _415
REMARK  181  A    between atoms: _414  and  _417
REMARK  182  A    between atoms: _420  and  _422
REMARK  183  A    between atoms: _422  and  _423
REMARK  184  A    between atoms: _422  and  _425
REMARK  185  A    between atoms: _428  and  _430
REMARK  186  A    between atoms: _430  and  _431
REMARK  187  A    between atoms: _430  and  _433
REMARK  188  A    between atoms: _433  and  _434
REMARK  189  A    between atoms: _436  and  _438
REMARK  190  A    between atoms: _438  and  _439
REMARK  191  A    between atoms: _438  and  _441
REMARK  192  A    between atoms: _441  and  _442
REMARK  193  A    between atoms: _444  and  _446
REMARK  194  A    between atoms: _446  and  _447
REMARK  195  A    between atoms: _446  and  _449
REMARK  196  A    between atoms: _452  and  _454
REMARK  197  A    between atoms: _454  and  _455
REMARK  198  A    between atoms: _454  and  _457
REMARK  199  A    between atoms: _457  and  _458
REMARK  200  A    between atoms: _458  and  _459
REMARK  201  A    between atoms: _459  and  _460
REMARK  202  A    between atoms: _460  and  _461
REMARK  203  A    between atoms: _465  and  _467
REMARK  204  A    between atoms: _467  and  _468
REMARK  205  A    between atoms: _467  and  _470
REMARK  206  A    between atoms: _470  and  _471
REMARK  207  A    between atoms: _474  and  _476
REMARK  208  A    between atoms: _476  and  _477
REMARK  209  A    between atoms: _476  and  _479
REMARK  210  A    between atoms: _479  and  _480
REMARK  211  A    between atoms: _480  and  _481
REMARK  212  A    between atoms: _481  and  _482
REMARK  213  A    between atoms: _491  and  _493
REMARK  214  A    between atoms: _493  and  _494
REMARK  215  A    between atoms: _493  and  _496
REMARK  216  A    between atoms: _496  and  _497
REMARK  217  A    between atoms: _500  and  _502
REMARK  218  A    between atoms: _502  and  _503
REMARK  219  A    between atoms: _502  and  _505
REMARK  220  A    between atoms: _505  and  _506
REMARK  221  A    between atoms: _506  and  _507
REMARK                            x       y       z     vdW  Elec       q    Type
REMARK                         _______ _______ _______ _____ _____    ______ ____
ROOT
ATOM      1  O   HOH     1       0.021  -9.873 -20.053  0.00  0.00    +0.000 OA
ENDROOT
TORSDOF 0
REMARK  Name = ../refined-set-2016/3ta1/3ta1_pocket.pdb
REMARK  221 active torsions:
REMARK  status: ('A' for Active; 'I' for Inactive)
REMARK    1  A    between atoms: _1  and  _3
REMARK    2  A    between atoms: _3  and  _4
REMARK    3  A    between atoms: _7  and  _9
REMARK    4  A    between atoms: _9  and  _10
REMARK    5  A    between atoms: _9  and  _12
REMARK    6  A    between atoms: _15  and  _17
REMARK    7  A    between atoms: _17  and  _18
REMARK    8  A    between atoms: _17  and  _20
REMARK    9  A    between atoms: _20  and  _21
REMARK   10  A    between atoms: _24  and  _26
REMARK   11  A    between atoms: _26  and  _27
REMARK   12  A    between atoms: _26  and  _29
REMARK   13  A    between atoms: _29  and  _30
REMARK   14  A    between atoms: _30  and  _31
REMARK   15  A    between atoms: _31  and  _32
REMARK   16  A    between atoms: _41  and  _43
REMARK   17  A    between atoms: _43  and  _44
REMARK   18  A    between atoms: _43  and  _46
REMARK   19  A    between atoms: _49  and  _51
REMARK   20  A    between atoms: _51  and  _52
REMARK   21  A    between atoms: _51  and  _54
REMARK   22  A    between atoms: _54  and  _55
REMARK   23  A    between atoms: _55  and  _56
REMARK   24  A    between atoms: _56  and  _57
REMARK   25  A    between atoms: _57  and  _58
REMARK   26  A    between atoms: _62  and  _64
REMARK   27  A    between atoms: _64  and  _65
REMARK   28  A    between atoms: _67  and  _69
REMARK   29  A    between atoms: _69  and  _70
REMARK   30  A    between atoms: _69  and  _72
REMARK   31  A    between atoms: _72  and  _73
REMARK   32  A    between atoms: _73  and  _74
REMARK   33  A    between atoms: _74  and  _75
REMARK   34  A    between atoms: _84  and  _86
REMARK   35  A    between atoms: _86  and  _87
REMARK   36  A    between atoms: _89  and  _91
REMARK   37  A    between atoms: _91  and  _92
REMARK   38  A    between atoms: _91  and  _94
REMARK   39  A    between atoms: _94  and  _95
REMARK   40  A    between atoms: _95  and  _96
REMARK   41  A    between atoms: _99  and  _101
REMARK   42  A    between atoms: _101  and  _102
REMARK   43  A    between atoms: _101  and  _104
REMARK   44  A    between atoms: _104  and  _105
REMARK   45  A    between atoms: _105  and  _106
REMARK   46  A    between atoms: _111  and  _113
REMARK   47  A    between atoms: _113  and  _114
REMARK   48  A    between atoms: _113  and  _116
REMARK   49  A    between atoms: _116  and  _117
REMARK   50  A    between atoms: _117  and  _118
REMARK   51  A    between atoms: _118  and  _119
REMARK   52  A    between atoms: _119  and  _120
REMARK   53  A    between atoms: _124  and  _126
REMARK   54  A    between atoms: _126  and  _127
REMARK   55  A    between atoms: _126  and  _129
REMARK   56  A    between atoms: _129  and  _130
REMARK   57  A    between atoms: _133  and  _135
REMARK   58  A    between atoms: _135  and  _136
REMARK   59  A    between atoms: _135  and  _138
REMARK   60  A    between atoms: _138  and  _139
REMARK   61  A    between atoms: _142  and  _144
REMARK   62  A    between atoms: _144  and  _145
REMARK   63  A    between atoms: _144  and  _147
REMARK   64  A    between atoms: _147  and  _148
REMARK   65  A    between atoms: _151  and  _153
REMARK   66  A    between atoms: _153  and  _154
REMARK   67  A    between atoms: _153  and  _156
REMARK   68  A    between atoms: _156  and  _157
REMARK   69  A    between atoms: _157  and  _158
REMARK   70  A    between atoms: _163  and  _165
REMARK   71  A    between atoms: _165  and  _166
REMARK   72  A    between atoms: _165  and  _168
REMARK   73  A    between atoms: _168  and  _169
REMARK   74  A    between atoms: _169  and  _170
REMARK   75  A    between atoms: _170  and  _171
REMARK   76  A    between atoms: _171  and  _172
REMARK   77  A    between atoms: _176  and  _178
REMARK   78  A    between atoms: _178  and  _179
REMARK   79  A    between atoms: _178  and  _181
REMARK   80  A    between atoms: _181  and  _182
REMARK   81  A    between atoms: _185  and  _187
REMARK   82  A    between atoms: _187  and  _188
REMARK   83  A    between atoms: _187  and  _190
REMARK   84  A    between atoms: _190  and  _191
REMARK   85  A    between atoms: _191  and  _192
REMARK   86  A    between atoms: _192  and  _193
REMARK   87  A    between atoms: _193  and  _194
REMARK   88  A    between atoms: _198  and  _200
REMARK   89  A    between atoms: _200  and  _201
REMARK   90  A    between atoms: _200  and  _203
REMARK   91  A    between atoms: _203  and  _204
REMARK   92  A    between atoms: _207  and  _209
REMARK   93  A    between atoms: _209  and  _210
REMARK   94  A    between atoms: _212  and  _214
REMARK   95  A    between atoms: _214  and  _215
REMARK   96  A    between atoms: _214  and  _217
REMARK   97  A    between atoms: _217  and  _218
REMARK   98  A    between atoms: _218  and  _219
REMARK   99  A    between atoms: _219  and  _220
REMARK  100  A    between atoms: _220  and  _221
REMARK  101  A    between atoms: _225  and  _227
REMARK  102  A    between atoms: _227  and  _228
REMARK  103  A    between atoms: _227  and  _230
REMARK  104  A    between atoms: _230  and  _231
REMARK  105  A    between atoms: _237  and  _239
REMARK  106  A    between atoms: _239  and  _240
REMARK  107  A    between atoms: _242  and  _244
REMARK  108  A    between atoms: _244  and  _245
REMARK  109  A    between atoms: _244  and  _247
REMARK  110  A    between atoms: _247  and  _248
REMARK  111  A    between atoms: _251  and  _253
REMARK  112  A    between atoms: _253  and  _254
REMARK  113  A    between atoms: _256  and  _258
REMARK  114  A    between atoms: _258  and  _259
REMARK  115  A    between atoms: _258  and  _261
REMARK  116  A    between atoms: _261  and  _262
REMARK  117  A    between atoms: _262  and  _263
REMARK  118  A    between atoms: _263  and  _264
REMARK  119  A    between atoms: _273  and  _275
REMARK  120  A    between atoms: _275  and  _276
REMARK  121  A    between atoms: _275  and  _278
REMARK  122  A    between atoms: _278  and  _279
REMARK  123  A    between atoms: _282  and  _284
REMARK  124  A    between atoms: _284  and  _285
REMARK  125  A    between atoms: _284  and  _287
REMARK  126  A    between atoms: _287  and  _288
REMARK  127  A    between atoms: _294  and  _298
REMARK  128  A    between atoms: _298  and  _299
REMARK  129  A    between atoms: _298  and  _301
REMARK  130  A    between atoms: _301  and  _302
REMARK  131  A    between atoms: _302  and  _303
REMARK  132  A    between atoms: _305  and  _307
REMARK  133  A    between atoms: _307  and  _308
REMARK  134  A    between atoms: _307  and  _310
REMARK  135  A    between atoms: _310  and  _311
REMARK  136  A    between atoms: _311  and  _312
REMARK  137  A    between atoms: _312  and  _313
REMARK  138  A    between atoms: _313  and  _314
REMARK  139  A    between atoms: _318  and  _320
REMARK  140  A    between atoms: _320  and  _321
REMARK  141  A    between atoms: _320  and  _323
REMARK  142  A    between atoms: _323  and  _324
REMARK  143  A    between atoms: _324  and  _325
REMARK  144  A    between atoms: _327  and  _329
REMARK  145  A    between atoms: _329  and  _330
REMARK  146  A    between atoms: _329  and  _332
REMARK  147  A    between atoms: _335  and  _337
REMARK  148  A    between atoms: _337  and  _338
REMARK  149  A    between atoms: _337  and  _340
REMARK  150  A    between atoms: _340  and  _341
REMARK  151  A    between atoms: _347  and  _349
REMARK  152  A    between atoms: _349  and  _350
REMARK  153  A    between atoms: _349  and  _352
REMARK  154  A    between atoms: _355  and  _357
REMARK  155  A    between atoms: _357  and  _358
REMARK  156  A    between atoms: _360  and  _362
REMARK  157  A    between atoms: _362  and  _363
REMARK  158  A    between atoms: _362  and  _365
REMARK  159  A    between atoms: _365  and  _366
REMARK  160  A    between atoms: _366  and  _367
REMARK  161  A    between atoms: _369  and  _371
REMARK  162  A    between atoms: _371  and  _372
REMARK  163  A    between atoms: _371  and  _374
REMARK  164  A    between atoms: _374  and  _375
REMARK  165  A    between atoms: _378  and  _380
REMARK  166  A    between atoms: _380  and  _381
REMARK  167  A    between atoms: _380  and  _383
REMARK  168  A    between atoms: _386  and  _388
REMARK  169  A    between atoms: _388  and  _389
REMARK  170  A    between atoms: _388  and  _391
REMARK  171  A    between atoms: _394  and  _396
REMARK  172  A    between atoms: _396  and  _397
REMARK  173  A    between atoms: _396  and  _399
REMARK  174  A    between atoms: _399  and  _400
REMARK  175  A    between atoms: _400  and  _401
REMARK  176  A    between atoms: _404  and  _406
REMARK  177  A    between atoms: _406  and  _407
REMARK  178  A    between atoms: _406  and  _409
REMARK  179  A    between atoms: _412  and  _414
REMARK  180  A    between atoms: _414  and  _415
REMARK  181  A    between atoms: _414  and  _417
REMARK  182  A    between atoms: _420  and  _422
REMARK  183  A    between atoms: _422  and  _423
REMARK  184  A    between atoms: _422  and  _425
REMARK  185  A    between atoms: _428  and  _430
REMARK  186  A    between atoms: _430  and  _431
REMARK  187  A    between atoms: _430  and  _433
REMARK  188  A    between atoms: _433  and  _434
REMARK  189  A    between atoms: _436  and  _438
REMARK  190  A    between atoms: _438  and  _439
REMARK  191  A    between atoms: _438  and  _441
REMARK  192  A    between atoms: _441  and  _442
REMARK  193  A    between atoms: _444  and  _446
REMARK  194  A    between atoms: _446  and  _447
REMARK  195  A    between atoms: _446  and  _449
REMARK  196  A    between atoms: _452  and  _454
REMARK  197  A    between atoms: _454  and  _455
REMARK  198  A    between atoms: _454  and  _457
REMARK  199  A    between atoms: _457  and  _458
REMARK  200  A    between atoms: _458  and  _459
REMARK  201  A    between atoms: _459  and  _460
REMARK  202  A    between atoms: _460  and  _461
REMARK  203  A    between atoms: _465  and  _467
REMARK  204  A    between atoms: _467  and  _468
REMARK  205  A    between atoms: _467  and  _470
REMARK  206  A    between atoms: _470  and  _471
REMARK  207  A    between atoms: _474  and  _476
REMARK  208  A    between atoms: _476  and  _477
REMARK  209  A    between atoms: _476  and  _479
REMARK  210  A    between atoms: _479  and  _480
REMARK  211  A    between atoms: _480  and  _481
REMARK  212  A    between atoms: _481  and  _482
REMARK  213  A    between atoms: _491  and  _493
REMARK  214  A    between atoms: _493  and  _494
REMARK  215  A    between atoms: _493  and  _496
REMARK  216  A    between atoms: _496  and  _497
REMARK  217  A    between atoms: _500  and  _502
REMARK  218  A    between atoms: _502  and  _503
REMARK  219  A    between atoms: _502  and  _505
REMARK  220  A    between atoms: _505  and  _506
REMARK  221  A    between atoms: _506  and  _507
REMARK                            x       y       z     vdW  Elec       q    Type
REMARK                         _______ _______ _______ _____ _____    ______ ____
ROOT
ATOM      1  O   HOH     1       5.715 -15.016 -11.729  0.00  0.00    +0.000 OA
ENDROOT
TORSDOF 0
REMARK  Name = ../refined-set-2016/3ta1/3ta1_pocket.pdb
REMARK  221 active torsions:
REMARK  status: ('A' for Active; 'I' for Inactive)
REMARK    1  A    between atoms: _1  and  _3
REMARK    2  A    between atoms: _3  and  _4
REMARK    3  A    between atoms: _7  and  _9
REMARK    4  A    between atoms: _9  and  _10
REMARK    5  A    between atoms: _9  and  _12
REMARK    6  A    between atoms: _15  and  _17
REMARK    7  A    between atoms: _17  and  _18
REMARK    8  A    between atoms: _17  and  _20
REMARK    9  A    between atoms: _20  and  _21
REMARK   10  A    between atoms: _24  and  _26
REMARK   11  A    between atoms: _26  and  _27
REMARK   12  A    between atoms: _26  and  _29
REMARK   13  A    between atoms: _29  and  _30
REMARK   14  A    between atoms: _30  and  _31
REMARK   15  A    between atoms: _31  and  _32
REMARK   16  A    between atoms: _41  and  _43
REMARK   17  A    between atoms: _43  and  _44
REMARK   18  A    between atoms: _43  and  _46
REMARK   19  A    between atoms: _49  and  _51
REMARK   20  A    between atoms: _51  and  _52
REMARK   21  A    between atoms: _51  and  _54
REMARK   22  A    between atoms: _54  and  _55
REMARK   23  A    between atoms: _55  and  _56
REMARK   24  A    between atoms: _56  and  _57
REMARK   25  A    between atoms: _57  and  _58
REMARK   26  A    between atoms: _62  and  _64
REMARK   27  A    between atoms: _64  and  _65
REMARK   28  A    between atoms: _67  and  _69
REMARK   29  A    between atoms: _69  and  _70
REMARK   30  A    between atoms: _69  and  _72
REMARK   31  A    between atoms: _72  and  _73
REMARK   32  A    between atoms: _73  and  _74
REMARK   33  A    between atoms: _74  and  _75
REMARK   34  A    between atoms: _84  and  _86
REMARK   35  A    between atoms: _86  and  _87
REMARK   36  A    between atoms: _89  and  _91
REMARK   37  A    between atoms: _91  and  _92
REMARK   38  A    between atoms: _91  and  _94
REMARK   39  A    between atoms: _94  and  _95
REMARK   40  A    between atoms: _95  and  _96
REMARK   41  A    between atoms: _99  and  _101
REMARK   42  A    between atoms: _101  and  _102
REMARK   43  A    between atoms: _101  and  _104
REMARK   44  A    between atoms: _104  and  _105
REMARK   45  A    between atoms: _105  and  _106
REMARK   46  A    between atoms: _111  and  _113
REMARK   47  A    between atoms: _113  and  _114
REMARK   48  A    between atoms: _113  and  _116
REMARK   49  A    between atoms: _116  and  _117
REMARK   50  A    between atoms: _117  and  _118
REMARK   51  A    between atoms: _118  and  _119
REMARK   52  A    between atoms: _119  and  _120
REMARK   53  A    between atoms: _124  and  _126
REMARK   54  A    between atoms: _126  and  _127
REMARK   55  A    between atoms: _126  and  _129
REMARK   56  A    between atoms: _129  and  _130
REMARK   57  A    between atoms: _133  and  _135
REMARK   58  A    between atoms: _135  and  _136
REMARK   59  A    between atoms: _135  and  _138
REMARK   60  A    between atoms: _138  and  _139
REMARK   61  A    between atoms: _142  and  _144
REMARK   62  A    between atoms: _144  and  _145
REMARK   63  A    between atoms: _144  and  _147
REMARK   64  A    between atoms: _147  and  _148
REMARK   65  A    between atoms: _151  and  _153
REMARK   66  A    between atoms: _153  and  _154
REMARK   67  A    between atoms: _153  and  _156
REMARK   68  A    between atoms: _156  and  _157
REMARK   69  A    between atoms: _157  and  _158
REMARK   70  A    between atoms: _163  and  _165
REMARK   71  A    between atoms: _165  and  _166
REMARK   72  A    between atoms: _165  and  _168
REMARK   73  A    between atoms: _168  and  _169
REMARK   74  A    between atoms: _169  and  _170
REMARK   75  A    between atoms: _170  and  _171
REMARK   76  A    between atoms: _171  and  _172
REMARK   77  A    between atoms: _176  and  _178
REMARK   78  A    between atoms: _178  and  _179
REMARK   79  A    between atoms: _178  and  _181
REMARK   80  A    between atoms: _181  and  _182
REMARK   81  A    between atoms: _185  and  _187
REMARK   82  A    between atoms: _187  and  _188
REMARK   83  A    between atoms: _187  and  _190
REMARK   84  A    between atoms: _190  and  _191
REMARK   85  A    between atoms: _191  and  _192
REMARK   86  A    between atoms: _192  and  _193
REMARK   87  A    between atoms: _193  and  _194
REMARK   88  A    between atoms: _198  and  _200
REMARK   89  A    between atoms: _200  and  _201
REMARK   90  A    between atoms: _200  and  _203
REMARK   91  A    between atoms: _203  and  _204
REMARK   92  A    between atoms: _207  and  _209
REMARK   93  A    between atoms: _209  and  _210
REMARK   94  A    between atoms: _212  and  _214
REMARK   95  A    between atoms: _214  and  _215
REMARK   96  A    between atoms: _214  and  _217
REMARK   97  A    between atoms: _217  and  _218
REMARK   98  A    between atoms: _218  and  _219
REMARK   99  A    between atoms: _219  and  _220
REMARK  100  A    between atoms: _220  and  _221
REMARK  101  A    between atoms: _225  and  _227
REMARK  102  A    between atoms: _227  and  _228
REMARK  103  A    between atoms: _227  and  _230
REMARK  104  A    between atoms: _230  and  _231
REMARK  105  A    between atoms: _237  and  _239
REMARK  106  A    between atoms: _239  and  _240
REMARK  107  A    between atoms: _242  and  _244
REMARK  108  A    between atoms: _244  and  _245
REMARK  109  A    between atoms: _244  and  _247
REMARK  110  A    between atoms: _247  and  _248
REMARK  111  A    between atoms: _251  and  _253
REMARK  112  A    between atoms: _253  and  _254
REMARK  113  A    between atoms: _256  and  _258
REMARK  114  A    between atoms: _258  and  _259
REMARK  115  A    between atoms: _258  and  _261
REMARK  116  A    between atoms: _261  and  _262
REMARK  117  A    between atoms: _262  and  _263
REMARK  118  A    between atoms: _263  and  _264
REMARK  119  A    between atoms: _273  and  _275
REMARK  120  A    between atoms: _275  and  _276
REMARK  121  A    between atoms: _275  and  _278
REMARK  122  A    between atoms: _278  and  _279
REMARK  123  A    between atoms: _282  and  _284
REMARK  124  A    between atoms: _284  and  _285
REMARK  125  A    between atoms: _284  and  _287
REMARK  126  A    between atoms: _287  and  _288
REMARK  127  A    between atoms: _294  and  _298
REMARK  128  A    between atoms: _298  and  _299
REMARK  129  A    between atoms: _298  and  _301
REMARK  130  A    between atoms: _301  and  _302
REMARK  131  A    between atoms: _302  and  _303
REMARK  132  A    between atoms: _305  and  _307
REMARK  133  A    between atoms: _307  and  _308
REMARK  134  A    between atoms: _307  and  _310
REMARK  135  A    between atoms: _310  and  _311
REMARK  136  A    between atoms: _311  and  _312
REMARK  137  A    between atoms: _312  and  _313
REMARK  138  A    between atoms: _313  and  _314
REMARK  139  A    between atoms: _318  and  _320
REMARK  140  A    between atoms: _320  and  _321
REMARK  141  A    between atoms: _320  and  _323
REMARK  142  A    between atoms: _323  and  _324
REMARK  143  A    between atoms: _324  and  _325
REMARK  144  A    between atoms: _327  and  _329
REMARK  145  A    between atoms: _329  and  _330
REMARK  146  A    between atoms: _329  and  _332
REMARK  147  A    between atoms: _335  and  _337
REMARK  148  A    between atoms: _337  and  _338
REMARK  149  A    between atoms: _337  and  _340
REMARK  150  A    between atoms: _340  and  _341
REMARK  151  A    between atoms: _347  and  _349
REMARK  152  A    between atoms: _349  and  _350
REMARK  153  A    between atoms: _349  and  _352
REMARK  154  A    between atoms: _355  and  _357
REMARK  155  A    between atoms: _357  and  _358
REMARK  156  A    between atoms: _360  and  _362
REMARK  157  A    between atoms: _362  and  _363
REMARK  158  A    between atoms: _362  and  _365
REMARK  159  A    between atoms: _365  and  _366
REMARK  160  A    between atoms: _366  and  _367
REMARK  161  A    between atoms: _369  and  _371
REMARK  162  A    between atoms: _371  and  _372
REMARK  163  A    between atoms: _371  and  _374
REMARK  164  A    between atoms: _374  and  _375
REMARK  165  A    between atoms: _378  and  _380
REMARK  166  A    between atoms: _380  and  _381
REMARK  167  A    between atoms: _380  and  _383
REMARK  168  A    between atoms: _386  and  _388
REMARK  169  A    between atoms: _388  and  _389
REMARK  170  A    between atoms: _388  and  _391
REMARK  171  A    between atoms: _394  and  _396
REMARK  172  A    between atoms: _396  and  _397
REMARK  173  A    between atoms: _396  and  _399
REMARK  174  A    between atoms: _399  and  _400
REMARK  175  A    between atoms: _400  and  _401
REMARK  176  A    between atoms: _404  and  _406
REMARK  177  A    between atoms: _406  and  _407
REMARK  178  A    between atoms: _406  and  _409
REMARK  179  A    between atoms: _412  and  _414
REMARK  180  A    between atoms: _414  and  _415
REMARK  181  A    between atoms: _414  and  _417
REMARK  182  A    between atoms: _420  and  _422
REMARK  183  A    between atoms: _422  and  _423
REMARK  184  A    between atoms: _422  and  _425
REMARK  185  A    between atoms: _428  and  _430
REMARK  186  A    between atoms: _430  and  _431
REMARK  187  A    between atoms: _430  and  _433
REMARK  188  A    between atoms: _433  and  _434
REMARK  189  A    between atoms: _436  and  _438
REMARK  190  A    between atoms: _438  and  _439
REMARK  191  A    between atoms: _438  and  _441
REMARK  192  A    between atoms: _441  and  _442
REMARK  193  A    between atoms: _444  and  _446
REMARK  194  A    between atoms: _446  and  _447
REMARK  195  A    between atoms: _446  and  _449
REMARK  196  A    between atoms: _452  and  _454
REMARK  197  A    between atoms: _454  and  _455
REMARK  198  A    between atoms: _454  and  _457
REMARK  199  A    between atoms: _457  and  _458
REMARK  200  A    between atoms: _458  and  _459
REMARK  201  A    between atoms: _459  and  _460
REMARK  202  A    between atoms: _460  and  _461
REMARK  203  A    between atoms: _465  and  _467
REMARK  204  A    between atoms: _467  and  _468
REMARK  205  A    between atoms: _467  and  _470
REMARK  206  A    between atoms: _470  and  _471
REMARK  207  A    between atoms: _474  and  _476
REMARK  208  A    between atoms: _476  and  _477
REMARK  209  A    between atoms: _476  and  _479
REMARK  210  A    between atoms: _479  and  _480
REMARK  211  A    between atoms: _480  and  _481
REMARK  212  A    between atoms: _481  and  _482
REMARK  213  A    between atoms: _491  and  _493
REMARK  214  A    between atoms: _493  and  _494
REMARK  215  A    between atoms: _493  and  _496
REMARK  216  A    between atoms: _496  and  _497
REMARK  217  A    between atoms: _500  and  _502
REMARK  218  A    between atoms: _502  and  _503
REMARK  219  A    between atoms: _502  and  _505
REMARK  220  A    between atoms: _505  and  _506
REMARK  221  A    between atoms: _506  and  _507
REMARK                            x       y       z     vdW  Elec       q    Type
REMARK                         _______ _______ _______ _____ _____    ______ ____
ROOT
ATOM      1  O   HOH     1       8.935 -14.474 -20.554  0.00  0.00    +0.000 OA
ENDROOT
TORSDOF 0
REMARK  Name = ../refined-set-2016/3ta1/3ta1_pocket.pdb
REMARK  221 active torsions:
REMARK  status: ('A' for Active; 'I' for Inactive)
REMARK    1  A    between atoms: _1  and  _3
REMARK    2  A    between atoms: _3  and  _4
REMARK    3  A    between atoms: _7  and  _9
REMARK    4  A    between atoms: _9  and  _10
REMARK    5  A    between atoms: _9  and  _12
REMARK    6  A    between atoms: _15  and  _17
REMARK    7  A    between atoms: _17  and  _18
REMARK    8  A    between atoms: _17  and  _20
REMARK    9  A    between atoms: _20  and  _21
REMARK   10  A    between atoms: _24  and  _26
REMARK   11  A    between atoms: _26  and  _27
REMARK   12  A    between atoms: _26  and  _29
REMARK   13  A    between atoms: _29  and  _30
REMARK   14  A    between atoms: _30  and  _31
REMARK   15  A    between atoms: _31  and  _32
REMARK   16  A    between atoms: _41  and  _43
REMARK   17  A    between atoms: _43  and  _44
REMARK   18  A    between atoms: _43  and  _46
REMARK   19  A    between atoms: _49  and  _51
REMARK   20  A    between atoms: _51  and  _52
REMARK   21  A    between atoms: _51  and  _54
REMARK   22  A    between atoms: _54  and  _55
REMARK   23  A    between atoms: _55  and  _56
REMARK   24  A    between atoms: _56  and  _57
REMARK   25  A    between atoms: _57  and  _58
REMARK   26  A    between atoms: _62  and  _64
REMARK   27  A    between atoms: _64  and  _65
REMARK   28  A    between atoms: _67  and  _69
REMARK   29  A    between atoms: _69  and  _70
REMARK   30  A    between atoms: _69  and  _72
REMARK   31  A    between atoms: _72  and  _73
REMARK   32  A    between atoms: _73  and  _74
REMARK   33  A    between atoms: _74  and  _75
REMARK   34  A    between atoms: _84  and  _86
REMARK   35  A    between atoms: _86  and  _87
REMARK   36  A    between atoms: _89  and  _91
REMARK   37  A    between atoms: _91  and  _92
REMARK   38  A    between atoms: _91  and  _94
REMARK   39  A    between atoms: _94  and  _95
REMARK   40  A    between atoms: _95  and  _96
REMARK   41  A    between atoms: _99  and  _101
REMARK   42  A    between atoms: _101  and  _102
REMARK   43  A    between atoms: _101  and  _104
REMARK   44  A    between atoms: _104  and  _105
REMARK   45  A    between atoms: _105  and  _106
REMARK   46  A    between atoms: _111  and  _113
REMARK   47  A    between atoms: _113  and  _114
REMARK   48  A    between atoms: _113  and  _116
REMARK   49  A    between atoms: _116  and  _117
REMARK   50  A    between atoms: _117  and  _118
REMARK   51  A    between atoms: _118  and  _119
REMARK   52  A    between atoms: _119  and  _120
REMARK   53  A    between atoms: _124  and  _126
REMARK   54  A    between atoms: _126  and  _127
REMARK   55  A    between atoms: _126  and  _129
REMARK   56  A    between atoms: _129  and  _130
REMARK   57  A    between atoms: _133  and  _135
REMARK   58  A    between atoms: _135  and  _136
REMARK   59  A    between atoms: _135  and  _138
REMARK   60  A    between atoms: _138  and  _139
REMARK   61  A    between atoms: _142  and  _144
REMARK   62  A    between atoms: _144  and  _145
REMARK   63  A    between atoms: _144  and  _147
REMARK   64  A    between atoms: _147  and  _148
REMARK   65  A    between atoms: _151  and  _153
REMARK   66  A    between atoms: _153  and  _154
REMARK   67  A    between atoms: _153  and  _156
REMARK   68  A    between atoms: _156  and  _157
REMARK   69  A    between atoms: _157  and  _158
REMARK   70  A    between atoms: _163  and  _165
REMARK   71  A    between atoms: _165  and  _166
REMARK   72  A    between atoms: _165  and  _168
REMARK   73  A    between atoms: _168  and  _169
REMARK   74  A    between atoms: _169  and  _170
REMARK   75  A    between atoms: _170  and  _171
REMARK   76  A    between atoms: _171  and  _172
REMARK   77  A    between atoms: _176  and  _178
REMARK   78  A    between atoms: _178  and  _179
REMARK   79  A    between atoms: _178  and  _181
REMARK   80  A    between atoms: _181  and  _182
REMARK   81  A    between atoms: _185  and  _187
REMARK   82  A    between atoms: _187  and  _188
REMARK   83  A    between atoms: _187  and  _190
REMARK   84  A    between atoms: _190  and  _191
REMARK   85  A    between atoms: _191  and  _192
REMARK   86  A    between atoms: _192  and  _193
REMARK   87  A    between atoms: _193  and  _194
REMARK   88  A    between atoms: _198  and  _200
REMARK   89  A    between atoms: _200  and  _201
REMARK   90  A    between atoms: _200  and  _203
REMARK   91  A    between atoms: _203  and  _204
REMARK   92  A    between atoms: _207  and  _209
REMARK   93  A    between atoms: _209  and  _210
REMARK   94  A    between atoms: _212  and  _214
REMARK   95  A    between atoms: _214  and  _215
REMARK   96  A    between atoms: _214  and  _217
REMARK   97  A    between atoms: _217  and  _218
REMARK   98  A    between atoms: _218  and  _219
REMARK   99  A    between atoms: _219  and  _220
REMARK  100  A    between atoms: _220  and  _221
REMARK  101  A    between atoms: _225  and  _227
REMARK  102  A    between atoms: _227  and  _228
REMARK  103  A    between atoms: _227  and  _230
REMARK  104  A    between atoms: _230  and  _231
REMARK  105  A    between atoms: _237  and  _239
REMARK  106  A    between atoms: _239  and  _240
REMARK  107  A    between atoms: _242  and  _244
REMARK  108  A    between atoms: _244  and  _245
REMARK  109  A    between atoms: _244  and  _247
REMARK  110  A    between atoms: _247  and  _248
REMARK  111  A    between atoms: _251  and  _253
REMARK  112  A    between atoms: _253  and  _254
REMARK  113  A    between atoms: _256  and  _258
REMARK  114  A    between atoms: _258  and  _259
REMARK  115  A    between atoms: _258  and  _261
REMARK  116  A    between atoms: _261  and  _262
REMARK  117  A    between atoms: _262  and  _263
REMARK  118  A    between atoms: _263  and  _264
REMARK  119  A    between atoms: _273  and  _275
REMARK  120  A    between atoms: _275  and  _276
REMARK  121  A    between atoms: _275  and  _278
REMARK  122  A    between atoms: _278  and  _279
REMARK  123  A    between atoms: _282  and  _284
REMARK  124  A    between atoms: _284  and  _285
REMARK  125  A    between atoms: _284  and  _287
REMARK  126  A    between atoms: _287  and  _288
REMARK  127  A    between atoms: _294  and  _298
REMARK  128  A    between atoms: _298  and  _299
REMARK  129  A    between atoms: _298  and  _301
REMARK  130  A    between atoms: _301  and  _302
REMARK  131  A    between atoms: _302  and  _303
REMARK  132  A    between atoms: _305  and  _307
REMARK  133  A    between atoms: _307  and  _308
REMARK  134  A    between atoms: _307  and  _310
REMARK  135  A    between atoms: _310  and  _311
REMARK  136  A    between atoms: _311  and  _312
REMARK  137  A    between atoms: _312  and  _313
REMARK  138  A    between atoms: _313  and  _314
REMARK  139  A    between atoms: _318  and  _320
REMARK  140  A    between atoms: _320  and  _321
REMARK  141  A    between atoms: _320  and  _323
REMARK  142  A    between atoms: _323  and  _324
REMARK  143  A    between atoms: _324  and  _325
REMARK  144  A    between atoms: _327  and  _329
REMARK  145  A    between atoms: _329  and  _330
REMARK  146  A    between atoms: _329  and  _332
REMARK  147  A    between atoms: _335  and  _337
REMARK  148  A    between atoms: _337  and  _338
REMARK  149  A    between atoms: _337  and  _340
REMARK  150  A    between atoms: _340  and  _341
REMARK  151  A    between atoms: _347  and  _349
REMARK  152  A    between atoms: _349  and  _350
REMARK  153  A    between atoms: _349  and  _352
REMARK  154  A    between atoms: _355  and  _357
REMARK  155  A    between atoms: _357  and  _358
REMARK  156  A    between atoms: _360  and  _362
REMARK  157  A    between atoms: _362  and  _363
REMARK  158  A    between atoms: _362  and  _365
REMARK  159  A    between atoms: _365  and  _366
REMARK  160  A    between atoms: _366  and  _367
REMARK  161  A    between atoms: _369  and  _371
REMARK  162  A    between atoms: _371  and  _372
REMARK  163  A    between atoms: _371  and  _374
REMARK  164  A    between atoms: _374  and  _375
REMARK  165  A    between atoms: _378  and  _380
REMARK  166  A    between atoms: _380  and  _381
REMARK  167  A    between atoms: _380  and  _383
REMARK  168  A    between atoms: _386  and  _388
REMARK  169  A    between atoms: _388  and  _389
REMARK  170  A    between atoms: _388  and  _391
REMARK  171  A    between atoms: _394  and  _396
REMARK  172  A    between atoms: _396  and  _397
REMARK  173  A    between atoms: _396  and  _399
REMARK  174  A    between atoms: _399  and  _400
REMARK  175  A    between atoms: _400  and  _401
REMARK  176  A    between atoms: _404  and  _406
REMARK  177  A    between atoms: _406  and  _407
REMARK  178  A    between atoms: _406  and  _409
REMARK  179  A    between atoms: _412  and  _414
REMARK  180  A    between atoms: _414  and  _415
REMARK  181  A    between atoms: _414  and  _417
REMARK  182  A    between atoms: _420  and  _422
REMARK  183  A    between atoms: _422  and  _423
REMARK  184  A    between atoms: _422  and  _425
REMARK  185  A    between atoms: _428  and  _430
REMARK  186  A    between atoms: _430  and  _431
REMARK  187  A    between atoms: _430  and  _433
REMARK  188  A    between atoms: _433  and  _434
REMARK  189  A    between atoms: _436  and  _438
REMARK  190  A    between atoms: _438  and  _439
REMARK  191  A    between atoms: _438  and  _441
REMARK  192  A    between atoms: _441  and  _442
REMARK  193  A    between atoms: _444  and  _446
REMARK  194  A    between atoms: _446  and  _447
REMARK  195  A    between atoms: _446  and  _449
REMARK  196  A    between atoms: _452  and  _454
REMARK  197  A    between atoms: _454  and  _455
REMARK  198  A    between atoms: _454  and  _457
REMARK  199  A    between atoms: _457  and  _458
REMARK  200  A    between atoms: _458  and  _459
REMARK  201  A    between atoms: _459  and  _460
REMARK  202  A    between atoms: _460  and  _461
REMARK  203  A    between atoms: _465  and  _467
REMARK  204  A    between atoms: _467  and  _468
REMARK  205  A    between atoms: _467  and  _470
REMARK  206  A    between atoms: _470  and  _471
REMARK  207  A    between atoms: _474  and  _476
REMARK  208  A    between atoms: _476  and  _477
REMARK  209  A    between atoms: _476  and  _479
REMARK  210  A    between atoms: _479  and  _480
REMARK  211  A    between atoms: _480  and  _481
REMARK  212  A    between atoms: _481  and  _482
REMARK  213  A    between atoms: _491  and  _493
REMARK  214  A    between atoms: _493  and  _494
REMARK  215  A    between atoms: _493  and  _496
REMARK  216  A    between atoms: _496  and  _497
REMARK  217  A    between atoms: _500  and  _502
REMARK  218  A    between atoms: _502  and  _503
REMARK  219  A    between atoms: _502  and  _505
REMARK  220  A    between atoms: _505  and  _506
REMARK  221  A    between atoms: _506  and  _507
REMARK                            x       y       z     vdW  Elec       q    Type
REMARK                         _______ _______ _______ _____ _____    ______ ____
ROOT
ATOM      1  O   HOH     1      -1.793  -8.895 -22.098  0.00  0.00    +0.000 OA
ENDROOT
TORSDOF 0
REMARK  Name = ../refined-set-2016/3ta1/3ta1_pocket.pdb
REMARK  221 active torsions:
REMARK  status: ('A' for Active; 'I' for Inactive)
REMARK    1  A    between atoms: _1  and  _3
REMARK    2  A    between atoms: _3  and  _4
REMARK    3  A    between atoms: _7  and  _9
REMARK    4  A    between atoms: _9  and  _10
REMARK    5  A    between atoms: _9  and  _12
REMARK    6  A    between atoms: _15  and  _17
REMARK    7  A    between atoms: _17  and  _18
REMARK    8  A    between atoms: _17  and  _20
REMARK    9  A    between atoms: _20  and  _21
REMARK   10  A    between atoms: _24  and  _26
REMARK   11  A    between atoms: _26  and  _27
REMARK   12  A    between atoms: _26  and  _29
REMARK   13  A    between atoms: _29  and  _30
REMARK   14  A    between atoms: _30  and  _31
REMARK   15  A    between atoms: _31  and  _32
REMARK   16  A    between atoms: _41  and  _43
REMARK   17  A    between atoms: _43  and  _44
REMARK   18  A    between atoms: _43  and  _46
REMARK   19  A    between atoms: _49  and  _51
REMARK   20  A    between atoms: _51  and  _52
REMARK   21  A    between atoms: _51  and  _54
REMARK   22  A    between atoms: _54  and  _55
REMARK   23  A    between atoms: _55  and  _56
REMARK   24  A    between atoms: _56  and  _57
REMARK   25  A    between atoms: _57  and  _58
REMARK   26  A    between atoms: _62  and  _64
REMARK   27  A    between atoms: _64  and  _65
REMARK   28  A    between atoms: _67  and  _69
REMARK   29  A    between atoms: _69  and  _70
REMARK   30  A    between atoms: _69  and  _72
REMARK   31  A    between atoms: _72  and  _73
REMARK   32  A    between atoms: _73  and  _74
REMARK   33  A    between atoms: _74  and  _75
REMARK   34  A    between atoms: _84  and  _86
REMARK   35  A    between atoms: _86  and  _87
REMARK   36  A    between atoms: _89  and  _91
REMARK   37  A    between atoms: _91  and  _92
REMARK   38  A    between atoms: _91  and  _94
REMARK   39  A    between atoms: _94  and  _95
REMARK   40  A    between atoms: _95  and  _96
REMARK   41  A    between atoms: _99  and  _101
REMARK   42  A    between atoms: _101  and  _102
REMARK   43  A    between atoms: _101  and  _104
REMARK   44  A    between atoms: _104  and  _105
REMARK   45  A    between atoms: _105  and  _106
REMARK   46  A    between atoms: _111  and  _113
REMARK   47  A    between atoms: _113  and  _114
REMARK   48  A    between atoms: _113  and  _116
REMARK   49  A    between atoms: _116  and  _117
REMARK   50  A    between atoms: _117  and  _118
REMARK   51  A    between atoms: _118  and  _119
REMARK   52  A    between atoms: _119  and  _120
REMARK   53  A    between atoms: _124  and  _126
REMARK   54  A    between atoms: _126  and  _127
REMARK   55  A    between atoms: _126  and  _129
REMARK   56  A    between atoms: _129  and  _130
REMARK   57  A    between atoms: _133  and  _135
REMARK   58  A    between atoms: _135  and  _136
REMARK   59  A    between atoms: _135  and  _138
REMARK   60  A    between atoms: _138  and  _139
REMARK   61  A    between atoms: _142  and  _144
REMARK   62  A    between atoms: _144  and  _145
REMARK   63  A    between atoms: _144  and  _147
REMARK   64  A    between atoms: _147  and  _148
REMARK   65  A    between atoms: _151  and  _153
REMARK   66  A    between atoms: _153  and  _154
REMARK   67  A    between atoms: _153  and  _156
REMARK   68  A    between atoms: _156  and  _157
REMARK   69  A    between atoms: _157  and  _158
REMARK   70  A    between atoms: _163  and  _165
REMARK   71  A    between atoms: _165  and  _166
REMARK   72  A    between atoms: _165  and  _168
REMARK   73  A    between atoms: _168  and  _169
REMARK   74  A    between atoms: _169  and  _170
REMARK   75  A    between atoms: _170  and  _171
REMARK   76  A    between atoms: _171  and  _172
REMARK   77  A    between atoms: _176  and  _178
REMARK   78  A    between atoms: _178  and  _179
REMARK   79  A    between atoms: _178  and  _181
REMARK   80  A    between atoms: _181  and  _182
REMARK   81  A    between atoms: _185  and  _187
REMARK   82  A    between atoms: _187  and  _188
REMARK   83  A    between atoms: _187  and  _190
REMARK   84  A    between atoms: _190  and  _191
REMARK   85  A    between atoms: _191  and  _192
REMARK   86  A    between atoms: _192  and  _193
REMARK   87  A    between atoms: _193  and  _194
REMARK   88  A    between atoms: _198  and  _200
REMARK   89  A    between atoms: _200  and  _201
REMARK   90  A    between atoms: _200  and  _203
REMARK   91  A    between atoms: _203  and  _204
REMARK   92  A    between atoms: _207  and  _209
REMARK   93  A    between atoms: _209  and  _210
REMARK   94  A    between atoms: _212  and  _214
REMARK   95  A    between atoms: _214  and  _215
REMARK   96  A    between atoms: _214  and  _217
REMARK   97  A    between atoms: _217  and  _218
REMARK   98  A    between atoms: _218  and  _219
REMARK   99  A    between atoms: _219  and  _220
REMARK  100  A    between atoms: _220  and  _221
REMARK  101  A    between atoms: _225  and  _227
REMARK  102  A    between atoms: _227  and  _228
REMARK  103  A    between atoms: _227  and  _230
REMARK  104  A    between atoms: _230  and  _231
REMARK  105  A    between atoms: _237  and  _239
REMARK  106  A    between atoms: _239  and  _240
REMARK  107  A    between atoms: _242  and  _244
REMARK  108  A    between atoms: _244  and  _245
REMARK  109  A    between atoms: _244  and  _247
REMARK  110  A    between atoms: _247  and  _248
REMARK  111  A    between atoms: _251  and  _253
REMARK  112  A    between atoms: _253  and  _254
REMARK  113  A    between atoms: _256  and  _258
REMARK  114  A    between atoms: _258  and  _259
REMARK  115  A    between atoms: _258  and  _261
REMARK  116  A    between atoms: _261  and  _262
REMARK  117  A    between atoms: _262  and  _263
REMARK  118  A    between atoms: _263  and  _264
REMARK  119  A    between atoms: _273  and  _275
REMARK  120  A    between atoms: _275  and  _276
REMARK  121  A    between atoms: _275  and  _278
REMARK  122  A    between atoms: _278  and  _279
REMARK  123  A    between atoms: _282  and  _284
REMARK  124  A    between atoms: _284  and  _285
REMARK  125  A    between atoms: _284  and  _287
REMARK  126  A    between atoms: _287  and  _288
REMARK  127  A    between atoms: _294  and  _298
REMARK  128  A    between atoms: _298  and  _299
REMARK  129  A    between atoms: _298  and  _301
REMARK  130  A    between atoms: _301  and  _302
REMARK  131  A    between atoms: _302  and  _303
REMARK  132  A    between atoms: _305  and  _307
REMARK  133  A    between atoms: _307  and  _308
REMARK  134  A    between atoms: _307  and  _310
REMARK  135  A    between atoms: _310  and  _311
REMARK  136  A    between atoms: _311  and  _312
REMARK  137  A    between atoms: _312  and  _313
REMARK  138  A    between atoms: _313  and  _314
REMARK  139  A    between atoms: _318  and  _320
REMARK  140  A    between atoms: _320  and  _321
REMARK  141  A    between atoms: _320  and  _323
REMARK  142  A    between atoms: _323  and  _324
REMARK  143  A    between atoms: _324  and  _325
REMARK  144  A    between atoms: _327  and  _329
REMARK  145  A    between atoms: _329  and  _330
REMARK  146  A    between atoms: _329  and  _332
REMARK  147  A    between atoms: _335  and  _337
REMARK  148  A    between atoms: _337  and  _338
REMARK  149  A    between atoms: _337  and  _340
REMARK  150  A    between atoms: _340  and  _341
REMARK  151  A    between atoms: _347  and  _349
REMARK  152  A    between atoms: _349  and  _350
REMARK  153  A    between atoms: _349  and  _352
REMARK  154  A    between atoms: _355  and  _357
REMARK  155  A    between atoms: _357  and  _358
REMARK  156  A    between atoms: _360  and  _362
REMARK  157  A    between atoms: _362  and  _363
REMARK  158  A    between atoms: _362  and  _365
REMARK  159  A    between atoms: _365  and  _366
REMARK  160  A    between atoms: _366  and  _367
REMARK  161  A    between atoms: _369  and  _371
REMARK  162  A    between atoms: _371  and  _372
REMARK  163  A    between atoms: _371  and  _374
REMARK  164  A    between atoms: _374  and  _375
REMARK  165  A    between atoms: _378  and  _380
REMARK  166  A    between atoms: _380  and  _381
REMARK  167  A    between atoms: _380  and  _383
REMARK  168  A    between atoms: _386  and  _388
REMARK  169  A    between atoms: _388  and  _389
REMARK  170  A    between atoms: _388  and  _391
REMARK  171  A    between atoms: _394  and  _396
REMARK  172  A    between atoms: _396  and  _397
REMARK  173  A    between atoms: _396  and  _399
REMARK  174  A    between atoms: _399  and  _400
REMARK  175  A    between atoms: _400  and  _401
REMARK  176  A    between atoms: _404  and  _406
REMARK  177  A    between atoms: _406  and  _407
REMARK  178  A    between atoms: _406  and  _409
REMARK  179  A    between atoms: _412  and  _414
REMARK  180  A    between atoms: _414  and  _415
REMARK  181  A    between atoms: _414  and  _417
REMARK  182  A    between atoms: _420  and  _422
REMARK  183  A    between atoms: _422  and  _423
REMARK  184  A    between atoms: _422  and  _425
REMARK  185  A    between atoms: _428  and  _430
REMARK  186  A    between atoms: _430  and  _431
REMARK  187  A    between atoms: _430  and  _433
REMARK  188  A    between atoms: _433  and  _434
REMARK  189  A    between atoms: _436  and  _438
REMARK  190  A    between atoms: _438  and  _439
REMARK  191  A    between atoms: _438  and  _441
REMARK  192  A    between atoms: _441  and  _442
REMARK  193  A    between atoms: _444  and  _446
REMARK  194  A    between atoms: _446  and  _447
REMARK  195  A    between atoms: _446  and  _449
REMARK  196  A    between atoms: _452  and  _454
REMARK  197  A    between atoms: _454  and  _455
REMARK  198  A    between atoms: _454  and  _457
REMARK  199  A    between atoms: _457  and  _458
REMARK  200  A    between atoms: _458  and  _459
REMARK  201  A    between atoms: _459  and  _460
REMARK  202  A    between atoms: _460  and  _461
REMARK  203  A    between atoms: _465  and  _467
REMARK  204  A    between atoms: _467  and  _468
REMARK  205  A    between atoms: _467  and  _470
REMARK  206  A    between atoms: _470  and  _471
REMARK  207  A    between atoms: _474  and  _476
REMARK  208  A    between atoms: _476  and  _477
REMARK  209  A    between atoms: _476  and  _479
REMARK  210  A    between atoms: _479  and  _480
REMARK  211  A    between atoms: _480  and  _481
REMARK  212  A    between atoms: _481  and  _482
REMARK  213  A    between atoms: _491  and  _493
REMARK  214  A    between atoms: _493  and  _494
REMARK  215  A    between atoms: _493  and  _496
REMARK  216  A    between atoms: _496  and  _497
REMARK  217  A    between atoms: _500  and  _502
REMARK  218  A    between atoms: _502  and  _503
REMARK  219  A    between atoms: _502  and  _505
REMARK  220  A    between atoms: _505  and  _506
REMARK  221  A    between atoms: _506  and  _507
REMARK                            x       y       z     vdW  Elec       q    Type
REMARK                         _______ _______ _______ _____ _____    ______ ____
ROOT
ATOM      1  O   HOH     1       3.496  -9.843  -7.483  0.00  0.00    +0.000 OA
ENDROOT
TORSDOF 0
REMARK  Name = ../refined-set-2016/3ta1/3ta1_pocket.pdb
REMARK  221 active torsions:
REMARK  status: ('A' for Active; 'I' for Inactive)
REMARK    1  A    between atoms: _1  and  _3
REMARK    2  A    between atoms: _3  and  _4
REMARK    3  A    between atoms: _7  and  _9
REMARK    4  A    between atoms: _9  and  _10
REMARK    5  A    between atoms: _9  and  _12
REMARK    6  A    between atoms: _15  and  _17
REMARK    7  A    between atoms: _17  and  _18
REMARK    8  A    between atoms: _17  and  _20
REMARK    9  A    between atoms: _20  and  _21
REMARK   10  A    between atoms: _24  and  _26
REMARK   11  A    between atoms: _26  and  _27
REMARK   12  A    between atoms: _26  and  _29
REMARK   13  A    between atoms: _29  and  _30
REMARK   14  A    between atoms: _30  and  _31
REMARK   15  A    between atoms: _31  and  _32
REMARK   16  A    between atoms: _41  and  _43
REMARK   17  A    between atoms: _43  and  _44
REMARK   18  A    between atoms: _43  and  _46
REMARK   19  A    between atoms: _49  and  _51
REMARK   20  A    between atoms: _51  and  _52
REMARK   21  A    between atoms: _51  and  _54
REMARK   22  A    between atoms: _54  and  _55
REMARK   23  A    between atoms: _55  and  _56
REMARK   24  A    between atoms: _56  and  _57
REMARK   25  A    between atoms: _57  and  _58
REMARK   26  A    between atoms: _62  and  _64
REMARK   27  A    between atoms: _64  and  _65
REMARK   28  A    between atoms: _67  and  _69
REMARK   29  A    between atoms: _69  and  _70
REMARK   30  A    between atoms: _69  and  _72
REMARK   31  A    between atoms: _72  and  _73
REMARK   32  A    between atoms: _73  and  _74
REMARK   33  A    between atoms: _74  and  _75
REMARK   34  A    between atoms: _84  and  _86
REMARK   35  A    between atoms: _86  and  _87
REMARK   36  A    between atoms: _89  and  _91
REMARK   37  A    between atoms: _91  and  _92
REMARK   38  A    between atoms: _91  and  _94
REMARK   39  A    between atoms: _94  and  _95
REMARK   40  A    between atoms: _95  and  _96
REMARK   41  A    between atoms: _99  and  _101
REMARK   42  A    between atoms: _101  and  _102
REMARK   43  A    between atoms: _101  and  _104
REMARK   44  A    between atoms: _104  and  _105
REMARK   45  A    between atoms: _105  and  _106
REMARK   46  A    between atoms: _111  and  _113
REMARK   47  A    between atoms: _113  and  _114
REMARK   48  A    between atoms: _113  and  _116
REMARK   49  A    between atoms: _116  and  _117
REMARK   50  A    between atoms: _117  and  _118
REMARK   51  A    between atoms: _118  and  _119
REMARK   52  A    between atoms: _119  and  _120
REMARK   53  A    between atoms: _124  and  _126
REMARK   54  A    between atoms: _126  and  _127
REMARK   55  A    between atoms: _126  and  _129
REMARK   56  A    between atoms: _129  and  _130
REMARK   57  A    between atoms: _133  and  _135
REMARK   58  A    between atoms: _135  and  _136
REMARK   59  A    between atoms: _135  and  _138
REMARK   60  A    between atoms: _138  and  _139
REMARK   61  A    between atoms: _142  and  _144
REMARK   62  A    between atoms: _144  and  _145
REMARK   63  A    between atoms: _144  and  _147
REMARK   64  A    between atoms: _147  and  _148
REMARK   65  A    between atoms: _151  and  _153
REMARK   66  A    between atoms: _153  and  _154
REMARK   67  A    between atoms: _153  and  _156
REMARK   68  A    between atoms: _156  and  _157
REMARK   69  A    between atoms: _157  and  _158
REMARK   70  A    between atoms: _163  and  _165
REMARK   71  A    between atoms: _165  and  _166
REMARK   72  A    between atoms: _165  and  _168
REMARK   73  A    between atoms: _168  and  _169
REMARK   74  A    between atoms: _169  and  _170
REMARK   75  A    between atoms: _170  and  _171
REMARK   76  A    between atoms: _171  and  _172
REMARK   77  A    between atoms: _176  and  _178
REMARK   78  A    between atoms: _178  and  _179
REMARK   79  A    between atoms: _178  and  _181
REMARK   80  A    between atoms: _181  and  _182
REMARK   81  A    between atoms: _185  and  _187
REMARK   82  A    between atoms: _187  and  _188
REMARK   83  A    between atoms: _187  and  _190
REMARK   84  A    between atoms: _190  and  _191
REMARK   85  A    between atoms: _191  and  _192
REMARK   86  A    between atoms: _192  and  _193
REMARK   87  A    between atoms: _193  and  _194
REMARK   88  A    between atoms: _198  and  _200
REMARK   89  A    between atoms: _200  and  _201
REMARK   90  A    between atoms: _200  and  _203
REMARK   91  A    between atoms: _203  and  _204
REMARK   92  A    between atoms: _207  and  _209
REMARK   93  A    between atoms: _209  and  _210
REMARK   94  A    between atoms: _212  and  _214
REMARK   95  A    between atoms: _214  and  _215
REMARK   96  A    between atoms: _214  and  _217
REMARK   97  A    between atoms: _217  and  _218
REMARK   98  A    between atoms: _218  and  _219
REMARK   99  A    between atoms: _219  and  _220
REMARK  100  A    between atoms: _220  and  _221
REMARK  101  A    between atoms: _225  and  _227
REMARK  102  A    between atoms: _227  and  _228
REMARK  103  A    between atoms: _227  and  _230
REMARK  104  A    between atoms: _230  and  _231
REMARK  105  A    between atoms: _237  and  _239
REMARK  106  A    between atoms: _239  and  _240
REMARK  107  A    between atoms: _242  and  _244
REMARK  108  A    between atoms: _244  and  _245
REMARK  109  A    between atoms: _244  and  _247
REMARK  110  A    between atoms: _247  and  _248
REMARK  111  A    between atoms: _251  and  _253
REMARK  112  A    between atoms: _253  and  _254
REMARK  113  A    between atoms: _256  and  _258
REMARK  114  A    between atoms: _258  and  _259
REMARK  115  A    between atoms: _258  and  _261
REMARK  116  A    between atoms: _261  and  _262
REMARK  117  A    between atoms: _262  and  _263
REMARK  118  A    between atoms: _263  and  _264
REMARK  119  A    between atoms: _273  and  _275
REMARK  120  A    between atoms: _275  and  _276
REMARK  121  A    between atoms: _275  and  _278
REMARK  122  A    between atoms: _278  and  _279
REMARK  123  A    between atoms: _282  and  _284
REMARK  124  A    between atoms: _284  and  _285
REMARK  125  A    between atoms: _284  and  _287
REMARK  126  A    between atoms: _287  and  _288
REMARK  127  A    between atoms: _294  and  _298
REMARK  128  A    between atoms: _298  and  _299
REMARK  129  A    between atoms: _298  and  _301
REMARK  130  A    between atoms: _301  and  _302
REMARK  131  A    between atoms: _302  and  _303
REMARK  132  A    between atoms: _305  and  _307
REMARK  133  A    between atoms: _307  and  _308
REMARK  134  A    between atoms: _307  and  _310
REMARK  135  A    between atoms: _310  and  _311
REMARK  136  A    between atoms: _311  and  _312
REMARK  137  A    between atoms: _312  and  _313
REMARK  138  A    between atoms: _313  and  _314
REMARK  139  A    between atoms: _318  and  _320
REMARK  140  A    between atoms: _320  and  _321
REMARK  141  A    between atoms: _320  and  _323
REMARK  142  A    between atoms: _323  and  _324
REMARK  143  A    between atoms: _324  and  _325
REMARK  144  A    between atoms: _327  and  _329
REMARK  145  A    between atoms: _329  and  _330
REMARK  146  A    between atoms: _329  and  _332
REMARK  147  A    between atoms: _335  and  _337
REMARK  148  A    between atoms: _337  and  _338
REMARK  149  A    between atoms: _337  and  _340
REMARK  150  A    between atoms: _340  and  _341
REMARK  151  A    between atoms: _347  and  _349
REMARK  152  A    between atoms: _349  and  _350
REMARK  153  A    between atoms: _349  and  _352
REMARK  154  A    between atoms: _355  and  _357
REMARK  155  A    between atoms: _357  and  _358
REMARK  156  A    between atoms: _360  and  _362
REMARK  157  A    between atoms: _362  and  _363
REMARK  158  A    between atoms: _362  and  _365
REMARK  159  A    between atoms: _365  and  _366
REMARK  160  A    between atoms: _366  and  _367
REMARK  161  A    between atoms: _369  and  _371
REMARK  162  A    between atoms: _371  and  _372
REMARK  163  A    between atoms: _371  and  _374
REMARK  164  A    between atoms: _374  and  _375
REMARK  165  A    between atoms: _378  and  _380
REMARK  166  A    between atoms: _380  and  _381
REMARK  167  A    between atoms: _380  and  _383
REMARK  168  A    between atoms: _386  and  _388
REMARK  169  A    between atoms: _388  and  _389
REMARK  170  A    between atoms: _388  and  _391
REMARK  171  A    between atoms: _394  and  _396
REMARK  172  A    between atoms: _396  and  _397
REMARK  173  A    between atoms: _396  and  _399
REMARK  174  A    between atoms: _399  and  _400
REMARK  175  A    between atoms: _400  and  _401
REMARK  176  A    between atoms: _404  and  _406
REMARK  177  A    between atoms: _406  and  _407
REMARK  178  A    between atoms: _406  and  _409
REMARK  179  A    between atoms: _412  and  _414
REMARK  180  A    between atoms: _414  and  _415
REMARK  181  A    between atoms: _414  and  _417
REMARK  182  A    between atoms: _420  and  _422
REMARK  183  A    between atoms: _422  and  _423
REMARK  184  A    between atoms: _422  and  _425
REMARK  185  A    between atoms: _428  and  _430
REMARK  186  A    between atoms: _430  and  _431
REMARK  187  A    between atoms: _430  and  _433
REMARK  188  A    between atoms: _433  and  _434
REMARK  189  A    between atoms: _436  and  _438
REMARK  190  A    between atoms: _438  and  _439
REMARK  191  A    between atoms: _438  and  _441
REMARK  192  A    between atoms: _441  and  _442
REMARK  193  A    between atoms: _444  and  _446
REMARK  194  A    between atoms: _446  and  _447
REMARK  195  A    between atoms: _446  and  _449
REMARK  196  A    between atoms: _452  and  _454
REMARK  197  A    between atoms: _454  and  _455
REMARK  198  A    between atoms: _454  and  _457
REMARK  199  A    between atoms: _457  and  _458
REMARK  200  A    between atoms: _458  and  _459
REMARK  201  A    between atoms: _459  and  _460
REMARK  202  A    between atoms: _460  and  _461
REMARK  203  A    between atoms: _465  and  _467
REMARK  204  A    between atoms: _467  and  _468
REMARK  205  A    between atoms: _467  and  _470
REMARK  206  A    between atoms: _470  and  _471
REMARK  207  A    between atoms: _474  and  _476
REMARK  208  A    between atoms: _476  and  _477
REMARK  209  A    between atoms: _476  and  _479
REMARK  210  A    between atoms: _479  and  _480
REMARK  211  A    between atoms: _480  and  _481
REMARK  212  A    between atoms: _481  and  _482
REMARK  213  A    between atoms: _491  and  _493
REMARK  214  A    between atoms: _493  and  _494
REMARK  215  A    between atoms: _493  and  _496
REMARK  216  A    between atoms: _496  and  _497
REMARK  217  A    between atoms: _500  and  _502
REMARK  218  A    between atoms: _502  and  _503
REMARK  219  A    between atoms: _502  and  _505
REMARK  220  A    between atoms: _505  and  _506
REMARK  221  A    between atoms: _506  and  _507
REMARK                            x       y       z     vdW  Elec       q    Type
REMARK                         _______ _______ _______ _____ _____    ______ ____
ROOT
ATOM      1  O   HOH     1      -0.849  -7.130 -11.909  0.00  0.00    +0.000 OA
ENDROOT
TORSDOF 0
REMARK  Name = ../refined-set-2016/3ta1/3ta1_pocket.pdb
REMARK  221 active torsions:
REMARK  status: ('A' for Active; 'I' for Inactive)
REMARK    1  A    between atoms: _1  and  _3
REMARK    2  A    between atoms: _3  and  _4
REMARK    3  A    between atoms: _7  and  _9
REMARK    4  A    between atoms: _9  and  _10
REMARK    5  A    between atoms: _9  and  _12
REMARK    6  A    between atoms: _15  and  _17
REMARK    7  A    between atoms: _17  and  _18
REMARK    8  A    between atoms: _17  and  _20
REMARK    9  A    between atoms: _20  and  _21
REMARK   10  A    between atoms: _24  and  _26
REMARK   11  A    between atoms: _26  and  _27
REMARK   12  A    between atoms: _26  and  _29
REMARK   13  A    between atoms: _29  and  _30
REMARK   14  A    between atoms: _30  and  _31
REMARK   15  A    between atoms: _31  and  _32
REMARK   16  A    between atoms: _41  and  _43
REMARK   17  A    between atoms: _43  and  _44
REMARK   18  A    between atoms: _43  and  _46
REMARK   19  A    between atoms: _49  and  _51
REMARK   20  A    between atoms: _51  and  _52
REMARK   21  A    between atoms: _51  and  _54
REMARK   22  A    between atoms: _54  and  _55
REMARK   23  A    between atoms: _55  and  _56
REMARK   24  A    between atoms: _56  and  _57
REMARK   25  A    between atoms: _57  and  _58
REMARK   26  A    between atoms: _62  and  _64
REMARK   27  A    between atoms: _64  and  _65
REMARK   28  A    between atoms: _67  and  _69
REMARK   29  A    between atoms: _69  and  _70
REMARK   30  A    between atoms: _69  and  _72
REMARK   31  A    between atoms: _72  and  _73
REMARK   32  A    between atoms: _73  and  _74
REMARK   33  A    between atoms: _74  and  _75
REMARK   34  A    between atoms: _84  and  _86
REMARK   35  A    between atoms: _86  and  _87
REMARK   36  A    between atoms: _89  and  _91
REMARK   37  A    between atoms: _91  and  _92
REMARK   38  A    between atoms: _91  and  _94
REMARK   39  A    between atoms: _94  and  _95
REMARK   40  A    between atoms: _95  and  _96
REMARK   41  A    between atoms: _99  and  _101
REMARK   42  A    between atoms: _101  and  _102
REMARK   43  A    between atoms: _101  and  _104
REMARK   44  A    between atoms: _104  and  _105
REMARK   45  A    between atoms: _105  and  _106
REMARK   46  A    between atoms: _111  and  _113
REMARK   47  A    between atoms: _113  and  _114
REMARK   48  A    between atoms: _113  and  _116
REMARK   49  A    between atoms: _116  and  _117
REMARK   50  A    between atoms: _117  and  _118
REMARK   51  A    between atoms: _118  and  _119
REMARK   52  A    between atoms: _119  and  _120
REMARK   53  A    between atoms: _124  and  _126
REMARK   54  A    between atoms: _126  and  _127
REMARK   55  A    between atoms: _126  and  _129
REMARK   56  A    between atoms: _129  and  _130
REMARK   57  A    between atoms: _133  and  _135
REMARK   58  A    between atoms: _135  and  _136
REMARK   59  A    between atoms: _135  and  _138
REMARK   60  A    between atoms: _138  and  _139
REMARK   61  A    between atoms: _142  and  _144
REMARK   62  A    between atoms: _144  and  _145
REMARK   63  A    between atoms: _144  and  _147
REMARK   64  A    between atoms: _147  and  _148
REMARK   65  A    between atoms: _151  and  _153
REMARK   66  A    between atoms: _153  and  _154
REMARK   67  A    between atoms: _153  and  _156
REMARK   68  A    between atoms: _156  and  _157
REMARK   69  A    between atoms: _157  and  _158
REMARK   70  A    between atoms: _163  and  _165
REMARK   71  A    between atoms: _165  and  _166
REMARK   72  A    between atoms: _165  and  _168
REMARK   73  A    between atoms: _168  and  _169
REMARK   74  A    between atoms: _169  and  _170
REMARK   75  A    between atoms: _170  and  _171
REMARK   76  A    between atoms: _171  and  _172
REMARK   77  A    between atoms: _176  and  _178
REMARK   78  A    between atoms: _178  and  _179
REMARK   79  A    between atoms: _178  and  _181
REMARK   80  A    between atoms: _181  and  _182
REMARK   81  A    between atoms: _185  and  _187
REMARK   82  A    between atoms: _187  and  _188
REMARK   83  A    between atoms: _187  and  _190
REMARK   84  A    between atoms: _190  and  _191
REMARK   85  A    between atoms: _191  and  _192
REMARK   86  A    between atoms: _192  and  _193
REMARK   87  A    between atoms: _193  and  _194
REMARK   88  A    between atoms: _198  and  _200
REMARK   89  A    between atoms: _200  and  _201
REMARK   90  A    between atoms: _200  and  _203
REMARK   91  A    between atoms: _203  and  _204
REMARK   92  A    between atoms: _207  and  _209
REMARK   93  A    between atoms: _209  and  _210
REMARK   94  A    between atoms: _212  and  _214
REMARK   95  A    between atoms: _214  and  _215
REMARK   96  A    between atoms: _214  and  _217
REMARK   97  A    between atoms: _217  and  _218
REMARK   98  A    between atoms: _218  and  _219
REMARK   99  A    between atoms: _219  and  _220
REMARK  100  A    between atoms: _220  and  _221
REMARK  101  A    between atoms: _225  and  _227
REMARK  102  A    between atoms: _227  and  _228
REMARK  103  A    between atoms: _227  and  _230
REMARK  104  A    between atoms: _230  and  _231
REMARK  105  A    between atoms: _237  and  _239
REMARK  106  A    between atoms: _239  and  _240
REMARK  107  A    between atoms: _242  and  _244
REMARK  108  A    between atoms: _244  and  _245
REMARK  109  A    between atoms: _244  and  _247
REMARK  110  A    between atoms: _247  and  _248
REMARK  111  A    between atoms: _251  and  _253
REMARK  112  A    between atoms: _253  and  _254
REMARK  113  A    between atoms: _256  and  _258
REMARK  114  A    between atoms: _258  and  _259
REMARK  115  A    between atoms: _258  and  _261
REMARK  116  A    between atoms: _261  and  _262
REMARK  117  A    between atoms: _262  and  _263
REMARK  118  A    between atoms: _263  and  _264
REMARK  119  A    between atoms: _273  and  _275
REMARK  120  A    between atoms: _275  and  _276
REMARK  121  A    between atoms: _275  and  _278
REMARK  122  A    between atoms: _278  and  _279
REMARK  123  A    between atoms: _282  and  _284
REMARK  124  A    between atoms: _284  and  _285
REMARK  125  A    between atoms: _284  and  _287
REMARK  126  A    between atoms: _287  and  _288
REMARK  127  A    between atoms: _294  and  _298
REMARK  128  A    between atoms: _298  and  _299
REMARK  129  A    between atoms: _298  and  _301
REMARK  130  A    between atoms: _301  and  _302
REMARK  131  A    between atoms: _302  and  _303
REMARK  132  A    between atoms: _305  and  _307
REMARK  133  A    between atoms: _307  and  _308
REMARK  134  A    between atoms: _307  and  _310
REMARK  135  A    between atoms: _310  and  _311
REMARK  136  A    between atoms: _311  and  _312
REMARK  137  A    between atoms: _312  and  _313
REMARK  138  A    between atoms: _313  and  _314
REMARK  139  A    between atoms: _318  and  _320
REMARK  140  A    between atoms: _320  and  _321
REMARK  141  A    between atoms: _320  and  _323
REMARK  142  A    between atoms: _323  and  _324
REMARK  143  A    between atoms: _324  and  _325
REMARK  144  A    between atoms: _327  and  _329
REMARK  145  A    between atoms: _329  and  _330
REMARK  146  A    between atoms: _329  and  _332
REMARK  147  A    between atoms: _335  and  _337
REMARK  148  A    between atoms: _337  and  _338
REMARK  149  A    between atoms: _337  and  _340
REMARK  150  A    between atoms: _340  and  _341
REMARK  151  A    between atoms: _347  and  _349
REMARK  152  A    between atoms: _349  and  _350
REMARK  153  A    between atoms: _349  and  _352
REMARK  154  A    between atoms: _355  and  _357
REMARK  155  A    between atoms: _357  and  _358
REMARK  156  A    between atoms: _360  and  _362
REMARK  157  A    between atoms: _362  and  _363
REMARK  158  A    between atoms: _362  and  _365
REMARK  159  A    between atoms: _365  and  _366
REMARK  160  A    between atoms: _366  and  _367
REMARK  161  A    between atoms: _369  and  _371
REMARK  162  A    between atoms: _371  and  _372
REMARK  163  A    between atoms: _371  and  _374
REMARK  164  A    between atoms: _374  and  _375
REMARK  165  A    between atoms: _378  and  _380
REMARK  166  A    between atoms: _380  and  _381
REMARK  167  A    between atoms: _380  and  _383
REMARK  168  A    between atoms: _386  and  _388
REMARK  169  A    between atoms: _388  and  _389
REMARK  170  A    between atoms: _388  and  _391
REMARK  171  A    between atoms: _394  and  _396
REMARK  172  A    between atoms: _396  and  _397
REMARK  173  A    between atoms: _396  and  _399
REMARK  174  A    between atoms: _399  and  _400
REMARK  175  A    between atoms: _400  and  _401
REMARK  176  A    between atoms: _404  and  _406
REMARK  177  A    between atoms: _406  and  _407
REMARK  178  A    between atoms: _406  and  _409
REMARK  179  A    between atoms: _412  and  _414
REMARK  180  A    between atoms: _414  and  _415
REMARK  181  A    between atoms: _414  and  _417
REMARK  182  A    between atoms: _420  and  _422
REMARK  183  A    between atoms: _422  and  _423
REMARK  184  A    between atoms: _422  and  _425
REMARK  185  A    between atoms: _428  and  _430
REMARK  186  A    between atoms: _430  and  _431
REMARK  187  A    between atoms: _430  and  _433
REMARK  188  A    between atoms: _433  and  _434
REMARK  189  A    between atoms: _436  and  _438
REMARK  190  A    between atoms: _438  and  _439
REMARK  191  A    between atoms: _438  and  _441
REMARK  192  A    between atoms: _441  and  _442
REMARK  193  A    between atoms: _444  and  _446
REMARK  194  A    between atoms: _446  and  _447
REMARK  195  A    between atoms: _446  and  _449
REMARK  196  A    between atoms: _452  and  _454
REMARK  197  A    between atoms: _454  and  _455
REMARK  198  A    between atoms: _454  and  _457
REMARK  199  A    between atoms: _457  and  _458
REMARK  200  A    between atoms: _458  and  _459
REMARK  201  A    between atoms: _459  and  _460
REMARK  202  A    between atoms: _460  and  _461
REMARK  203  A    between atoms: _465  and  _467
REMARK  204  A    between atoms: _467  and  _468
REMARK  205  A    between atoms: _467  and  _470
REMARK  206  A    between atoms: _470  and  _471
REMARK  207  A    between atoms: _474  and  _476
REMARK  208  A    between atoms: _476  and  _477
REMARK  209  A    between atoms: _476  and  _479
REMARK  210  A    between atoms: _479  and  _480
REMARK  211  A    between atoms: _480  and  _481
REMARK  212  A    between atoms: _481  and  _482
REMARK  213  A    between atoms: _491  and  _493
REMARK  214  A    between atoms: _493  and  _494
REMARK  215  A    between atoms: _493  and  _496
REMARK  216  A    between atoms: _496  and  _497
REMARK  217  A    between atoms: _500  and  _502
REMARK  218  A    between atoms: _502  and  _503
REMARK  219  A    between atoms: _502  and  _505
REMARK  220  A    between atoms: _505  and  _506
REMARK  221  A    between atoms: _506  and  _507
REMARK                            x       y       z     vdW  Elec       q    Type
REMARK                         _______ _______ _______ _____ _____    ______ ____
ROOT
ATOM      1  O   HOH     1      11.854 -13.991 -23.103  0.00  0.00    +0.000 OA
ENDROOT
TORSDOF 0
REMARK  Name = ../refined-set-2016/3ta1/3ta1_pocket.pdb
REMARK  221 active torsions:
REMARK  status: ('A' for Active; 'I' for Inactive)
REMARK    1  A    between atoms: _1  and  _3
REMARK    2  A    between atoms: _3  and  _4
REMARK    3  A    between atoms: _7  and  _9
REMARK    4  A    between atoms: _9  and  _10
REMARK    5  A    between atoms: _9  and  _12
REMARK    6  A    between atoms: _15  and  _17
REMARK    7  A    between atoms: _17  and  _18
REMARK    8  A    between atoms: _17  and  _20
REMARK    9  A    between atoms: _20  and  _21
REMARK   10  A    between atoms: _24  and  _26
REMARK   11  A    between atoms: _26  and  _27
REMARK   12  A    between atoms: _26  and  _29
REMARK   13  A    between atoms: _29  and  _30
REMARK   14  A    between atoms: _30  and  _31
REMARK   15  A    between atoms: _31  and  _32
REMARK   16  A    between atoms: _41  and  _43
REMARK   17  A    between atoms: _43  and  _44
REMARK   18  A    between atoms: _43  and  _46
REMARK   19  A    between atoms: _49  and  _51
REMARK   20  A    between atoms: _51  and  _52
REMARK   21  A    between atoms: _51  and  _54
REMARK   22  A    between atoms: _54  and  _55
REMARK   23  A    between atoms: _55  and  _56
REMARK   24  A    between atoms: _56  and  _57
REMARK   25  A    between atoms: _57  and  _58
REMARK   26  A    between atoms: _62  and  _64
REMARK   27  A    between atoms: _64  and  _65
REMARK   28  A    between atoms: _67  and  _69
REMARK   29  A    between atoms: _69  and  _70
REMARK   30  A    between atoms: _69  and  _72
REMARK   31  A    between atoms: _72  and  _73
REMARK   32  A    between atoms: _73  and  _74
REMARK   33  A    between atoms: _74  and  _75
REMARK   34  A    between atoms: _84  and  _86
REMARK   35  A    between atoms: _86  and  _87
REMARK   36  A    between atoms: _89  and  _91
REMARK   37  A    between atoms: _91  and  _92
REMARK   38  A    between atoms: _91  and  _94
REMARK   39  A    between atoms: _94  and  _95
REMARK   40  A    between atoms: _95  and  _96
REMARK   41  A    between atoms: _99  and  _101
REMARK   42  A    between atoms: _101  and  _102
REMARK   43  A    between atoms: _101  and  _104
REMARK   44  A    between atoms: _104  and  _105
REMARK   45  A    between atoms: _105  and  _106
REMARK   46  A    between atoms: _111  and  _113
REMARK   47  A    between atoms: _113  and  _114
REMARK   48  A    between atoms: _113  and  _116
REMARK   49  A    between atoms: _116  and  _117
REMARK   50  A    between atoms: _117  and  _118
REMARK   51  A    between atoms: _118  and  _119
REMARK   52  A    between atoms: _119  and  _120
REMARK   53  A    between atoms: _124  and  _126
REMARK   54  A    between atoms: _126  and  _127
REMARK   55  A    between atoms: _126  and  _129
REMARK   56  A    between atoms: _129  and  _130
REMARK   57  A    between atoms: _133  and  _135
REMARK   58  A    between atoms: _135  and  _136
REMARK   59  A    between atoms: _135  and  _138
REMARK   60  A    between atoms: _138  and  _139
REMARK   61  A    between atoms: _142  and  _144
REMARK   62  A    between atoms: _144  and  _145
REMARK   63  A    between atoms: _144  and  _147
REMARK   64  A    between atoms: _147  and  _148
REMARK   65  A    between atoms: _151  and  _153
REMARK   66  A    between atoms: _153  and  _154
REMARK   67  A    between atoms: _153  and  _156
REMARK   68  A    between atoms: _156  and  _157
REMARK   69  A    between atoms: _157  and  _158
REMARK   70  A    between atoms: _163  and  _165
REMARK   71  A    between atoms: _165  and  _166
REMARK   72  A    between atoms: _165  and  _168
REMARK   73  A    between atoms: _168  and  _169
REMARK   74  A    between atoms: _169  and  _170
REMARK   75  A    between atoms: _170  and  _171
REMARK   76  A    between atoms: _171  and  _172
REMARK   77  A    between atoms: _176  and  _178
REMARK   78  A    between atoms: _178  and  _179
REMARK   79  A    between atoms: _178  and  _181
REMARK   80  A    between atoms: _181  and  _182
REMARK   81  A    between atoms: _185  and  _187
REMARK   82  A    between atoms: _187  and  _188
REMARK   83  A    between atoms: _187  and  _190
REMARK   84  A    between atoms: _190  and  _191
REMARK   85  A    between atoms: _191  and  _192
REMARK   86  A    between atoms: _192  and  _193
REMARK   87  A    between atoms: _193  and  _194
REMARK   88  A    between atoms: _198  and  _200
REMARK   89  A    between atoms: _200  and  _201
REMARK   90  A    between atoms: _200  and  _203
REMARK   91  A    between atoms: _203  and  _204
REMARK   92  A    between atoms: _207  and  _209
REMARK   93  A    between atoms: _209  and  _210
REMARK   94  A    between atoms: _212  and  _214
REMARK   95  A    between atoms: _214  and  _215
REMARK   96  A    between atoms: _214  and  _217
REMARK   97  A    between atoms: _217  and  _218
REMARK   98  A    between atoms: _218  and  _219
REMARK   99  A    between atoms: _219  and  _220
REMARK  100  A    between atoms: _220  and  _221
REMARK  101  A    between atoms: _225  and  _227
REMARK  102  A    between atoms: _227  and  _228
REMARK  103  A    between atoms: _227  and  _230
REMARK  104  A    between atoms: _230  and  _231
REMARK  105  A    between atoms: _237  and  _239
REMARK  106  A    between atoms: _239  and  _240
REMARK  107  A    between atoms: _242  and  _244
REMARK  108  A    between atoms: _244  and  _245
REMARK  109  A    between atoms: _244  and  _247
REMARK  110  A    between atoms: _247  and  _248
REMARK  111  A    between atoms: _251  and  _253
REMARK  112  A    between atoms: _253  and  _254
REMARK  113  A    between atoms: _256  and  _258
REMARK  114  A    between atoms: _258  and  _259
REMARK  115  A    between atoms: _258  and  _261
REMARK  116  A    between atoms: _261  and  _262
REMARK  117  A    between atoms: _262  and  _263
REMARK  118  A    between atoms: _263  and  _264
REMARK  119  A    between atoms: _273  and  _275
REMARK  120  A    between atoms: _275  and  _276
REMARK  121  A    between atoms: _275  and  _278
REMARK  122  A    between atoms: _278  and  _279
REMARK  123  A    between atoms: _282  and  _284
REMARK  124  A    between atoms: _284  and  _285
REMARK  125  A    between atoms: _284  and  _287
REMARK  126  A    between atoms: _287  and  _288
REMARK  127  A    between atoms: _294  and  _298
REMARK  128  A    between atoms: _298  and  _299
REMARK  129  A    between atoms: _298  and  _301
REMARK  130  A    between atoms: _301  and  _302
REMARK  131  A    between atoms: _302  and  _303
REMARK  132  A    between atoms: _305  and  _307
REMARK  133  A    between atoms: _307  and  _308
REMARK  134  A    between atoms: _307  and  _310
REMARK  135  A    between atoms: _310  and  _311
REMARK  136  A    between atoms: _311  and  _312
REMARK  137  A    between atoms: _312  and  _313
REMARK  138  A    between atoms: _313  and  _314
REMARK  139  A    between atoms: _318  and  _320
REMARK  140  A    between atoms: _320  and  _321
REMARK  141  A    between atoms: _320  and  _323
REMARK  142  A    between atoms: _323  and  _324
REMARK  143  A    between atoms: _324  and  _325
REMARK  144  A    between atoms: _327  and  _329
REMARK  145  A    between atoms: _329  and  _330
REMARK  146  A    between atoms: _329  and  _332
REMARK  147  A    between atoms: _335  and  _337
REMARK  148  A    between atoms: _337  and  _338
REMARK  149  A    between atoms: _337  and  _340
REMARK  150  A    between atoms: _340  and  _341
REMARK  151  A    between atoms: _347  and  _349
REMARK  152  A    between atoms: _349  and  _350
REMARK  153  A    between atoms: _349  and  _352
REMARK  154  A    between atoms: _355  and  _357
REMARK  155  A    between atoms: _357  and  _358
REMARK  156  A    between atoms: _360  and  _362
REMARK  157  A    between atoms: _362  and  _363
REMARK  158  A    between atoms: _362  and  _365
REMARK  159  A    between atoms: _365  and  _366
REMARK  160  A    between atoms: _366  and  _367
REMARK  161  A    between atoms: _369  and  _371
REMARK  162  A    between atoms: _371  and  _372
REMARK  163  A    between atoms: _371  and  _374
REMARK  164  A    between atoms: _374  and  _375
REMARK  165  A    between atoms: _378  and  _380
REMARK  166  A    between atoms: _380  and  _381
REMARK  167  A    between atoms: _380  and  _383
REMARK  168  A    between atoms: _386  and  _388
REMARK  169  A    between atoms: _388  and  _389
REMARK  170  A    between atoms: _388  and  _391
REMARK  171  A    between atoms: _394  and  _396
REMARK  172  A    between atoms: _396  and  _397
REMARK  173  A    between atoms: _396  and  _399
REMARK  174  A    between atoms: _399  and  _400
REMARK  175  A    between atoms: _400  and  _401
REMARK  176  A    between atoms: _404  and  _406
REMARK  177  A    between atoms: _406  and  _407
REMARK  178  A    between atoms: _406  and  _409
REMARK  179  A    between atoms: _412  and  _414
REMARK  180  A    between atoms: _414  and  _415
REMARK  181  A    between atoms: _414  and  _417
REMARK  182  A    between atoms: _420  and  _422
REMARK  183  A    between atoms: _422  and  _423
REMARK  184  A    between atoms: _422  and  _425
REMARK  185  A    between atoms: _428  and  _430
REMARK  186  A    between atoms: _430  and  _431
REMARK  187  A    between atoms: _430  and  _433
REMARK  188  A    between atoms: _433  and  _434
REMARK  189  A    between atoms: _436  and  _438
REMARK  190  A    between atoms: _438  and  _439
REMARK  191  A    between atoms: _438  and  _441
REMARK  192  A    between atoms: _441  and  _442
REMARK  193  A    between atoms: _444  and  _446
REMARK  194  A    between atoms: _446  and  _447
REMARK  195  A    between atoms: _446  and  _449
REMARK  196  A    between atoms: _452  and  _454
REMARK  197  A    between atoms: _454  and  _455
REMARK  198  A    between atoms: _454  and  _457
REMARK  199  A    between atoms: _457  and  _458
REMARK  200  A    between atoms: _458  and  _459
REMARK  201  A    between atoms: _459  and  _460
REMARK  202  A    between atoms: _460  and  _461
REMARK  203  A    between atoms: _465  and  _467
REMARK  204  A    between atoms: _467  and  _468
REMARK  205  A    between atoms: _467  and  _470
REMARK  206  A    between atoms: _470  and  _471
REMARK  207  A    between atoms: _474  and  _476
REMARK  208  A    between atoms: _476  and  _477
REMARK  209  A    between atoms: _476  and  _479
REMARK  210  A    between atoms: _479  and  _480
REMARK  211  A    between atoms: _480  and  _481
REMARK  212  A    between atoms: _481  and  _482
REMARK  213  A    between atoms: _491  and  _493
REMARK  214  A    between atoms: _493  and  _494
REMARK  215  A    between atoms: _493  and  _496
REMARK  216  A    between atoms: _496  and  _497
REMARK  217  A    between atoms: _500  and  _502
REMARK  218  A    between atoms: _502  and  _503
REMARK  219  A    between atoms: _502  and  _505
REMARK  220  A    between atoms: _505  and  _506
REMARK  221  A    between atoms: _506  and  _507
REMARK                            x       y       z     vdW  Elec       q    Type
REMARK                         _______ _______ _______ _____ _____    ______ ____
ROOT
ATOM      1  O   HOH     1      10.055 -12.147 -23.762  0.00  0.00    +0.000 OA
ENDROOT
TORSDOF 0
REMARK  Name = ../refined-set-2016/3ta1/3ta1_pocket.pdb
REMARK  221 active torsions:
REMARK  status: ('A' for Active; 'I' for Inactive)
REMARK    1  A    between atoms: _1  and  _3
REMARK    2  A    between atoms: _3  and  _4
REMARK    3  A    between atoms: _7  and  _9
REMARK    4  A    between atoms: _9  and  _10
REMARK    5  A    between atoms: _9  and  _12
REMARK    6  A    between atoms: _15  and  _17
REMARK    7  A    between atoms: _17  and  _18
REMARK    8  A    between atoms: _17  and  _20
REMARK    9  A    between atoms: _20  and  _21
REMARK   10  A    between atoms: _24  and  _26
REMARK   11  A    between atoms: _26  and  _27
REMARK   12  A    between atoms: _26  and  _29
REMARK   13  A    between atoms: _29  and  _30
REMARK   14  A    between atoms: _30  and  _31
REMARK   15  A    between atoms: _31  and  _32
REMARK   16  A    between atoms: _41  and  _43
REMARK   17  A    between atoms: _43  and  _44
REMARK   18  A    between atoms: _43  and  _46
REMARK   19  A    between atoms: _49  and  _51
REMARK   20  A    between atoms: _51  and  _52
REMARK   21  A    between atoms: _51  and  _54
REMARK   22  A    between atoms: _54  and  _55
REMARK   23  A    between atoms: _55  and  _56
REMARK   24  A    between atoms: _56  and  _57
REMARK   25  A    between atoms: _57  and  _58
REMARK   26  A    between atoms: _62  and  _64
REMARK   27  A    between atoms: _64  and  _65
REMARK   28  A    between atoms: _67  and  _69
REMARK   29  A    between atoms: _69  and  _70
REMARK   30  A    between atoms: _69  and  _72
REMARK   31  A    between atoms: _72  and  _73
REMARK   32  A    between atoms: _73  and  _74
REMARK   33  A    between atoms: _74  and  _75
REMARK   34  A    between atoms: _84  and  _86
REMARK   35  A    between atoms: _86  and  _87
REMARK   36  A    between atoms: _89  and  _91
REMARK   37  A    between atoms: _91  and  _92
REMARK   38  A    between atoms: _91  and  _94
REMARK   39  A    between atoms: _94  and  _95
REMARK   40  A    between atoms: _95  and  _96
REMARK   41  A    between atoms: _99  and  _101
REMARK   42  A    between atoms: _101  and  _102
REMARK   43  A    between atoms: _101  and  _104
REMARK   44  A    between atoms: _104  and  _105
REMARK   45  A    between atoms: _105  and  _106
REMARK   46  A    between atoms: _111  and  _113
REMARK   47  A    between atoms: _113  and  _114
REMARK   48  A    between atoms: _113  and  _116
REMARK   49  A    between atoms: _116  and  _117
REMARK   50  A    between atoms: _117  and  _118
REMARK   51  A    between atoms: _118  and  _119
REMARK   52  A    between atoms: _119  and  _120
REMARK   53  A    between atoms: _124  and  _126
REMARK   54  A    between atoms: _126  and  _127
REMARK   55  A    between atoms: _126  and  _129
REMARK   56  A    between atoms: _129  and  _130
REMARK   57  A    between atoms: _133  and  _135
REMARK   58  A    between atoms: _135  and  _136
REMARK   59  A    between atoms: _135  and  _138
REMARK   60  A    between atoms: _138  and  _139
REMARK   61  A    between atoms: _142  and  _144
REMARK   62  A    between atoms: _144  and  _145
REMARK   63  A    between atoms: _144  and  _147
REMARK   64  A    between atoms: _147  and  _148
REMARK   65  A    between atoms: _151  and  _153
REMARK   66  A    between atoms: _153  and  _154
REMARK   67  A    between atoms: _153  and  _156
REMARK   68  A    between atoms: _156  and  _157
REMARK   69  A    between atoms: _157  and  _158
REMARK   70  A    between atoms: _163  and  _165
REMARK   71  A    between atoms: _165  and  _166
REMARK   72  A    between atoms: _165  and  _168
REMARK   73  A    between atoms: _168  and  _169
REMARK   74  A    between atoms: _169  and  _170
REMARK   75  A    between atoms: _170  and  _171
REMARK   76  A    between atoms: _171  and  _172
REMARK   77  A    between atoms: _176  and  _178
REMARK   78  A    between atoms: _178  and  _179
REMARK   79  A    between atoms: _178  and  _181
REMARK   80  A    between atoms: _181  and  _182
REMARK   81  A    between atoms: _185  and  _187
REMARK   82  A    between atoms: _187  and  _188
REMARK   83  A    between atoms: _187  and  _190
REMARK   84  A    between atoms: _190  and  _191
REMARK   85  A    between atoms: _191  and  _192
REMARK   86  A    between atoms: _192  and  _193
REMARK   87  A    between atoms: _193  and  _194
REMARK   88  A    between atoms: _198  and  _200
REMARK   89  A    between atoms: _200  and  _201
REMARK   90  A    between atoms: _200  and  _203
REMARK   91  A    between atoms: _203  and  _204
REMARK   92  A    between atoms: _207  and  _209
REMARK   93  A    between atoms: _209  and  _210
REMARK   94  A    between atoms: _212  and  _214
REMARK   95  A    between atoms: _214  and  _215
REMARK   96  A    between atoms: _214  and  _217
REMARK   97  A    between atoms: _217  and  _218
REMARK   98  A    between atoms: _218  and  _219
REMARK   99  A    between atoms: _219  and  _220
REMARK  100  A    between atoms: _220  and  _221
REMARK  101  A    between atoms: _225  and  _227
REMARK  102  A    between atoms: _227  and  _228
REMARK  103  A    between atoms: _227  and  _230
REMARK  104  A    between atoms: _230  and  _231
REMARK  105  A    between atoms: _237  and  _239
REMARK  106  A    between atoms: _239  and  _240
REMARK  107  A    between atoms: _242  and  _244
REMARK  108  A    between atoms: _244  and  _245
REMARK  109  A    between atoms: _244  and  _247
REMARK  110  A    between atoms: _247  and  _248
REMARK  111  A    between atoms: _251  and  _253
REMARK  112  A    between atoms: _253  and  _254
REMARK  113  A    between atoms: _256  and  _258
REMARK  114  A    between atoms: _258  and  _259
REMARK  115  A    between atoms: _258  and  _261
REMARK  116  A    between atoms: _261  and  _262
REMARK  117  A    between atoms: _262  and  _263
REMARK  118  A    between atoms: _263  and  _264
REMARK  119  A    between atoms: _273  and  _275
REMARK  120  A    between atoms: _275  and  _276
REMARK  121  A    between atoms: _275  and  _278
REMARK  122  A    between atoms: _278  and  _279
REMARK  123  A    between atoms: _282  and  _284
REMARK  124  A    between atoms: _284  and  _285
REMARK  125  A    between atoms: _284  and  _287
REMARK  126  A    between atoms: _287  and  _288
REMARK  127  A    between atoms: _294  and  _298
REMARK  128  A    between atoms: _298  and  _299
REMARK  129  A    between atoms: _298  and  _301
REMARK  130  A    between atoms: _301  and  _302
REMARK  131  A    between atoms: _302  and  _303
REMARK  132  A    between atoms: _305  and  _307
REMARK  133  A    between atoms: _307  and  _308
REMARK  134  A    between atoms: _307  and  _310
REMARK  135  A    between atoms: _310  and  _311
REMARK  136  A    between atoms: _311  and  _312
REMARK  137  A    between atoms: _312  and  _313
REMARK  138  A    between atoms: _313  and  _314
REMARK  139  A    between atoms: _318  and  _320
REMARK  140  A    between atoms: _320  and  _321
REMARK  141  A    between atoms: _320  and  _323
REMARK  142  A    between atoms: _323  and  _324
REMARK  143  A    between atoms: _324  and  _325
REMARK  144  A    between atoms: _327  and  _329
REMARK  145  A    between atoms: _329  and  _330
REMARK  146  A    between atoms: _329  and  _332
REMARK  147  A    between atoms: _335  and  _337
REMARK  148  A    between atoms: _337  and  _338
REMARK  149  A    between atoms: _337  and  _340
REMARK  150  A    between atoms: _340  and  _341
REMARK  151  A    between atoms: _347  and  _349
REMARK  152  A    between atoms: _349  and  _350
REMARK  153  A    between atoms: _349  and  _352
REMARK  154  A    between atoms: _355  and  _357
REMARK  155  A    between atoms: _357  and  _358
REMARK  156  A    between atoms: _360  and  _362
REMARK  157  A    between atoms: _362  and  _363
REMARK  158  A    between atoms: _362  and  _365
REMARK  159  A    between atoms: _365  and  _366
REMARK  160  A    between atoms: _366  and  _367
REMARK  161  A    between atoms: _369  and  _371
REMARK  162  A    between atoms: _371  and  _372
REMARK  163  A    between atoms: _371  and  _374
REMARK  164  A    between atoms: _374  and  _375
REMARK  165  A    between atoms: _378  and  _380
REMARK  166  A    between atoms: _380  and  _381
REMARK  167  A    between atoms: _380  and  _383
REMARK  168  A    between atoms: _386  and  _388
REMARK  169  A    between atoms: _388  and  _389
REMARK  170  A    between atoms: _388  and  _391
REMARK  171  A    between atoms: _394  and  _396
REMARK  172  A    between atoms: _396  and  _397
REMARK  173  A    between atoms: _396  and  _399
REMARK  174  A    between atoms: _399  and  _400
REMARK  175  A    between atoms: _400  and  _401
REMARK  176  A    between atoms: _404  and  _406
REMARK  177  A    between atoms: _406  and  _407
REMARK  178  A    between atoms: _406  and  _409
REMARK  179  A    between atoms: _412  and  _414
REMARK  180  A    between atoms: _414  and  _415
REMARK  181  A    between atoms: _414  and  _417
REMARK  182  A    between atoms: _420  and  _422
REMARK  183  A    between atoms: _422  and  _423
REMARK  184  A    between atoms: _422  and  _425
REMARK  185  A    between atoms: _428  and  _430
REMARK  186  A    between atoms: _430  and  _431
REMARK  187  A    between atoms: _430  and  _433
REMARK  188  A    between atoms: _433  and  _434
REMARK  189  A    between atoms: _436  and  _438
REMARK  190  A    between atoms: _438  and  _439
REMARK  191  A    between atoms: _438  and  _441
REMARK  192  A    between atoms: _441  and  _442
REMARK  193  A    between atoms: _444  and  _446
REMARK  194  A    between atoms: _446  and  _447
REMARK  195  A    between atoms: _446  and  _449
REMARK  196  A    between atoms: _452  and  _454
REMARK  197  A    between atoms: _454  and  _455
REMARK  198  A    between atoms: _454  and  _457
REMARK  199  A    between atoms: _457  and  _458
REMARK  200  A    between atoms: _458  and  _459
REMARK  201  A    between atoms: _459  and  _460
REMARK  202  A    between atoms: _460  and  _461
REMARK  203  A    between atoms: _465  and  _467
REMARK  204  A    between atoms: _467  and  _468
REMARK  205  A    between atoms: _467  and  _470
REMARK  206  A    between atoms: _470  and  _471
REMARK  207  A    between atoms: _474  and  _476
REMARK  208  A    between atoms: _476  and  _477
REMARK  209  A    between atoms: _476  and  _479
REMARK  210  A    between atoms: _479  and  _480
REMARK  211  A    between atoms: _480  and  _481
REMARK  212  A    between atoms: _481  and  _482
REMARK  213  A    between atoms: _491  and  _493
REMARK  214  A    between atoms: _493  and  _494
REMARK  215  A    between atoms: _493  and  _496
REMARK  216  A    between atoms: _496  and  _497
REMARK  217  A    between atoms: _500  and  _502
REMARK  218  A    between atoms: _502  and  _503
REMARK  219  A    between atoms: _502  and  _505
REMARK  220  A    between atoms: _505  and  _506
REMARK  221  A    between atoms: _506  and  _507
REMARK                            x       y       z     vdW  Elec       q    Type
REMARK                         _______ _______ _______ _____ _____    ______ ____
ROOT
ATOM      1  O   HOH     1       8.844 -21.616 -13.569  0.00  0.00    +0.000 OA
ENDROOT
TORSDOF 0
REMARK  Name = ../refined-set-2016/3ta1/3ta1_pocket.pdb
REMARK  221 active torsions:
REMARK  status: ('A' for Active; 'I' for Inactive)
REMARK    1  A    between atoms: _1  and  _3
REMARK    2  A    between atoms: _3  and  _4
REMARK    3  A    between atoms: _7  and  _9
REMARK    4  A    between atoms: _9  and  _10
REMARK    5  A    between atoms: _9  and  _12
REMARK    6  A    between atoms: _15  and  _17
REMARK    7  A    between atoms: _17  and  _18
REMARK    8  A    between atoms: _17  and  _20
REMARK    9  A    between atoms: _20  and  _21
REMARK   10  A    between atoms: _24  and  _26
REMARK   11  A    between atoms: _26  and  _27
REMARK   12  A    between atoms: _26  and  _29
REMARK   13  A    between atoms: _29  and  _30
REMARK   14  A    between atoms: _30  and  _31
REMARK   15  A    between atoms: _31  and  _32
REMARK   16  A    between atoms: _41  and  _43
REMARK   17  A    between atoms: _43  and  _44
REMARK   18  A    between atoms: _43  and  _46
REMARK   19  A    between atoms: _49  and  _51
REMARK   20  A    between atoms: _51  and  _52
REMARK   21  A    between atoms: _51  and  _54
REMARK   22  A    between atoms: _54  and  _55
REMARK   23  A    between atoms: _55  and  _56
REMARK   24  A    between atoms: _56  and  _57
REMARK   25  A    between atoms: _57  and  _58
REMARK   26  A    between atoms: _62  and  _64
REMARK   27  A    between atoms: _64  and  _65
REMARK   28  A    between atoms: _67  and  _69
REMARK   29  A    between atoms: _69  and  _70
REMARK   30  A    between atoms: _69  and  _72
REMARK   31  A    between atoms: _72  and  _73
REMARK   32  A    between atoms: _73  and  _74
REMARK   33  A    between atoms: _74  and  _75
REMARK   34  A    between atoms: _84  and  _86
REMARK   35  A    between atoms: _86  and  _87
REMARK   36  A    between atoms: _89  and  _91
REMARK   37  A    between atoms: _91  and  _92
REMARK   38  A    between atoms: _91  and  _94
REMARK   39  A    between atoms: _94  and  _95
REMARK   40  A    between atoms: _95  and  _96
REMARK   41  A    between atoms: _99  and  _101
REMARK   42  A    between atoms: _101  and  _102
REMARK   43  A    between atoms: _101  and  _104
REMARK   44  A    between atoms: _104  and  _105
REMARK   45  A    between atoms: _105  and  _106
REMARK   46  A    between atoms: _111  and  _113
REMARK   47  A    between atoms: _113  and  _114
REMARK   48  A    between atoms: _113  and  _116
REMARK   49  A    between atoms: _116  and  _117
REMARK   50  A    between atoms: _117  and  _118
REMARK   51  A    between atoms: _118  and  _119
REMARK   52  A    between atoms: _119  and  _120
REMARK   53  A    between atoms: _124  and  _126
REMARK   54  A    between atoms: _126  and  _127
REMARK   55  A    between atoms: _126  and  _129
REMARK   56  A    between atoms: _129  and  _130
REMARK   57  A    between atoms: _133  and  _135
REMARK   58  A    between atoms: _135  and  _136
REMARK   59  A    between atoms: _135  and  _138
REMARK   60  A    between atoms: _138  and  _139
REMARK   61  A    between atoms: _142  and  _144
REMARK   62  A    between atoms: _144  and  _145
REMARK   63  A    between atoms: _144  and  _147
REMARK   64  A    between atoms: _147  and  _148
REMARK   65  A    between atoms: _151  and  _153
REMARK   66  A    between atoms: _153  and  _154
REMARK   67  A    between atoms: _153  and  _156
REMARK   68  A    between atoms: _156  and  _157
REMARK   69  A    between atoms: _157  and  _158
REMARK   70  A    between atoms: _163  and  _165
REMARK   71  A    between atoms: _165  and  _166
REMARK   72  A    between atoms: _165  and  _168
REMARK   73  A    between atoms: _168  and  _169
REMARK   74  A    between atoms: _169  and  _170
REMARK   75  A    between atoms: _170  and  _171
REMARK   76  A    between atoms: _171  and  _172
REMARK   77  A    between atoms: _176  and  _178
REMARK   78  A    between atoms: _178  and  _179
REMARK   79  A    between atoms: _178  and  _181
REMARK   80  A    between atoms: _181  and  _182
REMARK   81  A    between atoms: _185  and  _187
REMARK   82  A    between atoms: _187  and  _188
REMARK   83  A    between atoms: _187  and  _190
REMARK   84  A    between atoms: _190  and  _191
REMARK   85  A    between atoms: _191  and  _192
REMARK   86  A    between atoms: _192  and  _193
REMARK   87  A    between atoms: _193  and  _194
REMARK   88  A    between atoms: _198  and  _200
REMARK   89  A    between atoms: _200  and  _201
REMARK   90  A    between atoms: _200  and  _203
REMARK   91  A    between atoms: _203  and  _204
REMARK   92  A    between atoms: _207  and  _209
REMARK   93  A    between atoms: _209  and  _210
REMARK   94  A    between atoms: _212  and  _214
REMARK   95  A    between atoms: _214  and  _215
REMARK   96  A    between atoms: _214  and  _217
REMARK   97  A    between atoms: _217  and  _218
REMARK   98  A    between atoms: _218  and  _219
REMARK   99  A    between atoms: _219  and  _220
REMARK  100  A    between atoms: _220  and  _221
REMARK  101  A    between atoms: _225  and  _227
REMARK  102  A    between atoms: _227  and  _228
REMARK  103  A    between atoms: _227  and  _230
REMARK  104  A    between atoms: _230  and  _231
REMARK  105  A    between atoms: _237  and  _239
REMARK  106  A    between atoms: _239  and  _240
REMARK  107  A    between atoms: _242  and  _244
REMARK  108  A    between atoms: _244  and  _245
REMARK  109  A    between atoms: _244  and  _247
REMARK  110  A    between atoms: _247  and  _248
REMARK  111  A    between atoms: _251  and  _253
REMARK  112  A    between atoms: _253  and  _254
REMARK  113  A    between atoms: _256  and  _258
REMARK  114  A    between atoms: _258  and  _259
REMARK  115  A    between atoms: _258  and  _261
REMARK  116  A    between atoms: _261  and  _262
REMARK  117  A    between atoms: _262  and  _263
REMARK  118  A    between atoms: _263  and  _264
REMARK  119  A    between atoms: _273  and  _275
REMARK  120  A    between atoms: _275  and  _276
REMARK  121  A    between atoms: _275  and  _278
REMARK  122  A    between atoms: _278  and  _279
REMARK  123  A    between atoms: _282  and  _284
REMARK  124  A    between atoms: _284  and  _285
REMARK  125  A    between atoms: _284  and  _287
REMARK  126  A    between atoms: _287  and  _288
REMARK  127  A    between atoms: _294  and  _298
REMARK  128  A    between atoms: _298  and  _299
REMARK  129  A    between atoms: _298  and  _301
REMARK  130  A    between atoms: _301  and  _302
REMARK  131  A    between atoms: _302  and  _303
REMARK  132  A    between atoms: _305  and  _307
REMARK  133  A    between atoms: _307  and  _308
REMARK  134  A    between atoms: _307  and  _310
REMARK  135  A    between atoms: _310  and  _311
REMARK  136  A    between atoms: _311  and  _312
REMARK  137  A    between atoms: _312  and  _313
REMARK  138  A    between atoms: _313  and  _314
REMARK  139  A    between atoms: _318  and  _320
REMARK  140  A    between atoms: _320  and  _321
REMARK  141  A    between atoms: _320  and  _323
REMARK  142  A    between atoms: _323  and  _324
REMARK  143  A    between atoms: _324  and  _325
REMARK  144  A    between atoms: _327  and  _329
REMARK  145  A    between atoms: _329  and  _330
REMARK  146  A    between atoms: _329  and  _332
REMARK  147  A    between atoms: _335  and  _337
REMARK  148  A    between atoms: _337  and  _338
REMARK  149  A    between atoms: _337  and  _340
REMARK  150  A    between atoms: _340  and  _341
REMARK  151  A    between atoms: _347  and  _349
REMARK  152  A    between atoms: _349  and  _350
REMARK  153  A    between atoms: _349  and  _352
REMARK  154  A    between atoms: _355  and  _357
REMARK  155  A    between atoms: _357  and  _358
REMARK  156  A    between atoms: _360  and  _362
REMARK  157  A    between atoms: _362  and  _363
REMARK  158  A    between atoms: _362  and  _365
REMARK  159  A    between atoms: _365  and  _366
REMARK  160  A    between atoms: _366  and  _367
REMARK  161  A    between atoms: _369  and  _371
REMARK  162  A    between atoms: _371  and  _372
REMARK  163  A    between atoms: _371  and  _374
REMARK  164  A    between atoms: _374  and  _375
REMARK  165  A    between atoms: _378  and  _380
REMARK  166  A    between atoms: _380  and  _381
REMARK  167  A    between atoms: _380  and  _383
REMARK  168  A    between atoms: _386  and  _388
REMARK  169  A    between atoms: _388  and  _389
REMARK  170  A    between atoms: _388  and  _391
REMARK  171  A    between atoms: _394  and  _396
REMARK  172  A    between atoms: _396  and  _397
REMARK  173  A    between atoms: _396  and  _399
REMARK  174  A    between atoms: _399  and  _400
REMARK  175  A    between atoms: _400  and  _401
REMARK  176  A    between atoms: _404  and  _406
REMARK  177  A    between atoms: _406  and  _407
REMARK  178  A    between atoms: _406  and  _409
REMARK  179  A    between atoms: _412  and  _414
REMARK  180  A    between atoms: _414  and  _415
REMARK  181  A    between atoms: _414  and  _417
REMARK  182  A    between atoms: _420  and  _422
REMARK  183  A    between atoms: _422  and  _423
REMARK  184  A    between atoms: _422  and  _425
REMARK  185  A    between atoms: _428  and  _430
REMARK  186  A    between atoms: _430  and  _431
REMARK  187  A    between atoms: _430  and  _433
REMARK  188  A    between atoms: _433  and  _434
REMARK  189  A    between atoms: _436  and  _438
REMARK  190  A    between atoms: _438  and  _439
REMARK  191  A    between atoms: _438  and  _441
REMARK  192  A    between atoms: _441  and  _442
REMARK  193  A    between atoms: _444  and  _446
REMARK  194  A    between atoms: _446  and  _447
REMARK  195  A    between atoms: _446  and  _449
REMARK  196  A    between atoms: _452  and  _454
REMARK  197  A    between atoms: _454  and  _455
REMARK  198  A    between atoms: _454  and  _457
REMARK  199  A    between atoms: _457  and  _458
REMARK  200  A    between atoms: _458  and  _459
REMARK  201  A    between atoms: _459  and  _460
REMARK  202  A    between atoms: _460  and  _461
REMARK  203  A    between atoms: _465  and  _467
REMARK  204  A    between atoms: _467  and  _468
REMARK  205  A    between atoms: _467  and  _470
REMARK  206  A    between atoms: _470  and  _471
REMARK  207  A    between atoms: _474  and  _476
REMARK  208  A    between atoms: _476  and  _477
REMARK  209  A    between atoms: _476  and  _479
REMARK  210  A    between atoms: _479  and  _480
REMARK  211  A    between atoms: _480  and  _481
REMARK  212  A    between atoms: _481  and  _482
REMARK  213  A    between atoms: _491  and  _493
REMARK  214  A    between atoms: _493  and  _494
REMARK  215  A    between atoms: _493  and  _496
REMARK  216  A    between atoms: _496  and  _497
REMARK  217  A    between atoms: _500  and  _502
REMARK  218  A    between atoms: _502  and  _503
REMARK  219  A    between atoms: _502  and  _505
REMARK  220  A    between atoms: _505  and  _506
REMARK  221  A    between atoms: _506  and  _507
REMARK                            x       y       z     vdW  Elec       q    Type
REMARK                         _______ _______ _______ _____ _____    ______ ____
ROOT
ATOM      1  O   HOH     1      10.941  -0.769 -18.999  0.00  0.00    +0.000 OA
ENDROOT
TORSDOF 0
