REMARK  Name = ../refined-set-2016/1f5k/1f5k_pocket.pdb
REMARK  132 active torsions:
REMARK  status: ('A' for Active; 'I' for Inactive)
REMARK    1  A    between atoms: _1  and  _3
REMARK    2  A    between atoms: _3  and  _4
REMARK    3  A    between atoms: _3  and  _6
REMARK    4  A    between atoms: _6  and  _7
REMARK    5  A    between atoms: _10  and  _12
REMARK    6  A    between atoms: _12  and  _13
REMARK    7  A    between atoms: _12  and  _15
REMARK    8  A    between atoms: _15  and  _16
REMARK    9  A    between atoms: _21  and  _23
REMARK   10  A    between atoms: _23  and  _24
REMARK   11  A    between atoms: _23  and  _26
REMARK   12  A    between atoms: _26  and  _27
REMARK   13  A    between atoms: _32  and  _34
REMARK   14  A    between atoms: _34  and  _35
REMARK   15  A    between atoms: _34  and  _37
REMARK   16  A    between atoms: _37  and  _38
REMARK   17  A    between atoms: _41  and  _43
REMARK   18  A    between atoms: _43  and  _44
REMARK   19  A    between atoms: _43  and  _46
REMARK   20  A    between atoms: _46  and  _47
REMARK   21  A    between atoms: _50  and  _52
REMARK   22  A    between atoms: _52  and  _53
REMARK   23  A    between atoms: _52  and  _55
REMARK   24  A    between atoms: _55  and  _56
REMARK   25  A    between atoms: _56  and  _57
REMARK   26  A    between atoms: _57  and  _58
REMARK   27  A    between atoms: _58  and  _59
REMARK   28  A    between atoms: _63  and  _65
REMARK   29  A    between atoms: _65  and  _66
REMARK   30  A    between atoms: _65  and  _68
REMARK   31  A    between atoms: _68  and  _69
REMARK   32  A    between atoms: _71  and  _73
REMARK   33  A    between atoms: _73  and  _74
REMARK   34  A    between atoms: _73  and  _76
REMARK   35  A    between atoms: _79  and  _81
REMARK   36  A    between atoms: _81  and  _82
REMARK   37  A    between atoms: _81  and  _84
REMARK   38  A    between atoms: _84  and  _85
REMARK   39  A    between atoms: _90  and  _91
REMARK   40  A    between atoms: _93  and  _95
REMARK   41  A    between atoms: _95  and  _96
REMARK   42  A    between atoms: _99  and  _101
REMARK   43  A    between atoms: _101  and  _102
REMARK   44  A    between atoms: _105  and  _107
REMARK   45  A    between atoms: _107  and  _108
REMARK   46  A    between atoms: _107  and  _110
REMARK   47  A    between atoms: _110  and  _111
REMARK   48  A    between atoms: _114  and  _116
REMARK   49  A    between atoms: _116  and  _117
REMARK   50  A    between atoms: _116  and  _119
REMARK   51  A    between atoms: _119  and  _120
REMARK   52  A    between atoms: _123  and  _125
REMARK   53  A    between atoms: _125  and  _126
REMARK   54  A    between atoms: _125  and  _128
REMARK   55  A    between atoms: _128  and  _129
REMARK   56  A    between atoms: _131  and  _133
REMARK   57  A    between atoms: _133  and  _134
REMARK   58  A    between atoms: _133  and  _136
REMARK   59  A    between atoms: _136  and  _137
REMARK   60  A    between atoms: _137  and  _256
REMARK   61  A    between atoms: _138  and  _140
REMARK   62  A    between atoms: _140  and  _141
REMARK   63  A    between atoms: _140  and  _143
REMARK   64  A    between atoms: _143  and  _144
REMARK   65  A    between atoms: _144  and  _145
REMARK   66  A    between atoms: _150  and  _152
REMARK   67  A    between atoms: _152  and  _153
REMARK   68  A    between atoms: _155  and  _157
REMARK   69  A    between atoms: _157  and  _158
REMARK   70  A    between atoms: _157  and  _160
REMARK   71  A    between atoms: _160  and  _161
REMARK   72  A    between atoms: _164  and  _166
REMARK   73  A    between atoms: _166  and  _167
REMARK   74  A    between atoms: _166  and  _169
REMARK   75  A    between atoms: _169  and  _170
REMARK   76  A    between atoms: _172  and  _174
REMARK   77  A    between atoms: _174  and  _175
REMARK   78  A    between atoms: _177  and  _179
REMARK   79  A    between atoms: _179  and  _180
REMARK   80  A    between atoms: _182  and  _184
REMARK   81  A    between atoms: _184  and  _185
REMARK   82  A    between atoms: _184  and  _187
REMARK   83  A    between atoms: _187  and  _188
REMARK   84  A    between atoms: _191  and  _193
REMARK   85  A    between atoms: _193  and  _194
REMARK   86  A    between atoms: _193  and  _196
REMARK   87  A    between atoms: _199  and  _201
REMARK   88  A    between atoms: _201  and  _202
REMARK   89  A    between atoms: _201  and  _204
REMARK   90  A    between atoms: _204  and  _205
REMARK   91  A    between atoms: _207  and  _209
REMARK   92  A    between atoms: _209  and  _210
REMARK   93  A    between atoms: _209  and  _212
REMARK   94  A    between atoms: _212  and  _213
REMARK   95  A    between atoms: _223  and  _225
REMARK   96  A    between atoms: _225  and  _226
REMARK   97  A    between atoms: _228  and  _230
REMARK   98  A    between atoms: _230  and  _231
REMARK   99  A    between atoms: _230  and  _233
REMARK  100  A    between atoms: _233  and  _234
REMARK  101  A    between atoms: _234  and  _235
REMARK  102  A    between atoms: _235  and  _236
REMARK  103  A    between atoms: _245  and  _247
REMARK  104  A    between atoms: _247  and  _248
REMARK  105  A    between atoms: _250  and  _252
REMARK  106  A    between atoms: _252  and  _253
REMARK  107  A    between atoms: _252  and  _255
REMARK  108  A    between atoms: _255  and  _256
REMARK  109  A    between atoms: _257  and  _259
REMARK  110  A    between atoms: _259  and  _260
REMARK  111  A    between atoms: _263  and  _265
REMARK  112  A    between atoms: _265  and  _266
REMARK  113  A    between atoms: _265  and  _268
REMARK  114  A    between atoms: _268  and  _269
REMARK  115  A    between atoms: _272  and  _274
REMARK  116  A    between atoms: _274  and  _275
REMARK  117  A    between atoms: _274  and  _277
REMARK  118  A    between atoms: _277  and  _278
REMARK  119  A    between atoms: _278  and  _279
REMARK  120  A    between atoms: _279  and  _280
REMARK  121  A    between atoms: _280  and  _281
REMARK  122  A    between atoms: _286  and  _287
REMARK  123  A    between atoms: _292  and  _294
REMARK  124  A    between atoms: _294  and  _295
REMARK  125  A    between atoms: _297  and  _299
REMARK  126  A    between atoms: _299  and  _300
REMARK  127  A    between atoms: _299  and  _302
REMARK  128  A    between atoms: _305  and  _307
REMARK  129  A    between atoms: _307  and  _308
REMARK  130  A    between atoms: _307  and  _310
REMARK  131  A    between atoms: _310  and  _311
REMARK  132  A    between atoms: _316  and  _317
REMARK                            x       y       z     vdW  Elec       q    Type
REMARK                         _______ _______ _______ _____ _____    ______ ____
ROOT
ATOM      1  CA  ILE A   1      31.566   0.987  19.333  0.00  0.00    +0.133 C 
ENDROOT
BRANCH   1   2
ATOM      2  N   ILE A   1      30.570   0.834  20.396  0.00  0.00    -0.239 NA
ATOM      3  H   ILE A   1      30.897   0.836  21.383  0.00  0.00    +0.142 HD
ENDBRANCH   1   2
BRANCH   1   4
ATOM      4  CB  ILE A   1      32.853   1.693  19.837  0.00  0.00    +0.023 C 
ATOM      5  CG2 ILE A   1      33.812   1.941  18.671  0.00  0.00    +0.002 C 
BRANCH   4   6
ATOM      6  CG1 ILE A   1      32.512   2.999  20.564  0.00  0.00    +0.002 C 
ATOM      7  CD1 ILE A   1      31.857   4.046  19.705  0.00  0.00    +0.000 C 
ENDBRANCH   4   6
ENDBRANCH   1   4
BRANCH   1   8
ATOM      8  C   ILE A   1      31.953  -0.431  18.906  0.00  0.00    +0.224 C 
ATOM      9  O   ILE A   1      32.348  -1.248  19.742  0.00  0.00    -0.287 OA
ENDBRANCH   1   8
TORSDOF 4
REMARK  Name = ../refined-set-2016/1f5k/1f5k_pocket.pdb
REMARK  132 active torsions:
REMARK  status: ('A' for Active; 'I' for Inactive)
REMARK    1  A    between atoms: _1  and  _3
REMARK    2  A    between atoms: _3  and  _4
REMARK    3  A    between atoms: _3  and  _6
REMARK    4  A    between atoms: _6  and  _7
REMARK    5  A    between atoms: _10  and  _12
REMARK    6  A    between atoms: _12  and  _13
REMARK    7  A    between atoms: _12  and  _15
REMARK    8  A    between atoms: _15  and  _16
REMARK    9  A    between atoms: _21  and  _23
REMARK   10  A    between atoms: _23  and  _24
REMARK   11  A    between atoms: _23  and  _26
REMARK   12  A    between atoms: _26  and  _27
REMARK   13  A    between atoms: _32  and  _34
REMARK   14  A    between atoms: _34  and  _35
REMARK   15  A    between atoms: _34  and  _37
REMARK   16  A    between atoms: _37  and  _38
REMARK   17  A    between atoms: _41  and  _43
REMARK   18  A    between atoms: _43  and  _44
REMARK   19  A    between atoms: _43  and  _46
REMARK   20  A    between atoms: _46  and  _47
REMARK   21  A    between atoms: _50  and  _52
REMARK   22  A    between atoms: _52  and  _53
REMARK   23  A    between atoms: _52  and  _55
REMARK   24  A    between atoms: _55  and  _56
REMARK   25  A    between atoms: _56  and  _57
REMARK   26  A    between atoms: _57  and  _58
REMARK   27  A    between atoms: _58  and  _59
REMARK   28  A    between atoms: _63  and  _65
REMARK   29  A    between atoms: _65  and  _66
REMARK   30  A    between atoms: _65  and  _68
REMARK   31  A    between atoms: _68  and  _69
REMARK   32  A    between atoms: _71  and  _73
REMARK   33  A    between atoms: _73  and  _74
REMARK   34  A    between atoms: _73  and  _76
REMARK   35  A    between atoms: _79  and  _81
REMARK   36  A    between atoms: _81  and  _82
REMARK   37  A    between atoms: _81  and  _84
REMARK   38  A    between atoms: _84  and  _85
REMARK   39  A    between atoms: _90  and  _91
REMARK   40  A    between atoms: _93  and  _95
REMARK   41  A    between atoms: _95  and  _96
REMARK   42  A    between atoms: _99  and  _101
REMARK   43  A    between atoms: _101  and  _102
REMARK   44  A    between atoms: _105  and  _107
REMARK   45  A    between atoms: _107  and  _108
REMARK   46  A    between atoms: _107  and  _110
REMARK   47  A    between atoms: _110  and  _111
REMARK   48  A    between atoms: _114  and  _116
REMARK   49  A    between atoms: _116  and  _117
REMARK   50  A    between atoms: _116  and  _119
REMARK   51  A    between atoms: _119  and  _120
REMARK   52  A    between atoms: _123  and  _125
REMARK   53  A    between atoms: _125  and  _126
REMARK   54  A    between atoms: _125  and  _128
REMARK   55  A    between atoms: _128  and  _129
REMARK   56  A    between atoms: _131  and  _133
REMARK   57  A    between atoms: _133  and  _134
REMARK   58  A    between atoms: _133  and  _136
REMARK   59  A    between atoms: _136  and  _137
REMARK   60  A    between atoms: _137  and  _256
REMARK   61  A    between atoms: _138  and  _140
REMARK   62  A    between atoms: _140  and  _141
REMARK   63  A    between atoms: _140  and  _143
REMARK   64  A    between atoms: _143  and  _144
REMARK   65  A    between atoms: _144  and  _145
REMARK   66  A    between atoms: _150  and  _152
REMARK   67  A    between atoms: _152  and  _153
REMARK   68  A    between atoms: _155  and  _157
REMARK   69  A    between atoms: _157  and  _158
REMARK   70  A    between atoms: _157  and  _160
REMARK   71  A    between atoms: _160  and  _161
REMARK   72  A    between atoms: _164  and  _166
REMARK   73  A    between atoms: _166  and  _167
REMARK   74  A    between atoms: _166  and  _169
REMARK   75  A    between atoms: _169  and  _170
REMARK   76  A    between atoms: _172  and  _174
REMARK   77  A    between atoms: _174  and  _175
REMARK   78  A    between atoms: _177  and  _179
REMARK   79  A    between atoms: _179  and  _180
REMARK   80  A    between atoms: _182  and  _184
REMARK   81  A    between atoms: _184  and  _185
REMARK   82  A    between atoms: _184  and  _187
REMARK   83  A    between atoms: _187  and  _188
REMARK   84  A    between atoms: _191  and  _193
REMARK   85  A    between atoms: _193  and  _194
REMARK   86  A    between atoms: _193  and  _196
REMARK   87  A    between atoms: _199  and  _201
REMARK   88  A    between atoms: _201  and  _202
REMARK   89  A    between atoms: _201  and  _204
REMARK   90  A    between atoms: _204  and  _205
REMARK   91  A    between atoms: _207  and  _209
REMARK   92  A    between atoms: _209  and  _210
REMARK   93  A    between atoms: _209  and  _212
REMARK   94  A    between atoms: _212  and  _213
REMARK   95  A    between atoms: _223  and  _225
REMARK   96  A    between atoms: _225  and  _226
REMARK   97  A    between atoms: _228  and  _230
REMARK   98  A    between atoms: _230  and  _231
REMARK   99  A    between atoms: _230  and  _233
REMARK  100  A    between atoms: _233  and  _234
REMARK  101  A    between atoms: _234  and  _235
REMARK  102  A    between atoms: _235  and  _236
REMARK  103  A    between atoms: _245  and  _247
REMARK  104  A    between atoms: _247  and  _248
REMARK  105  A    between atoms: _250  and  _252
REMARK  106  A    between atoms: _252  and  _253
REMARK  107  A    between atoms: _252  and  _255
REMARK  108  A    between atoms: _255  and  _256
REMARK  109  A    between atoms: _257  and  _259
REMARK  110  A    between atoms: _259  and  _260
REMARK  111  A    between atoms: _263  and  _265
REMARK  112  A    between atoms: _265  and  _266
REMARK  113  A    between atoms: _265  and  _268
REMARK  114  A    between atoms: _268  and  _269
REMARK  115  A    between atoms: _272  and  _274
REMARK  116  A    between atoms: _274  and  _275
REMARK  117  A    between atoms: _274  and  _277
REMARK  118  A    between atoms: _277  and  _278
REMARK  119  A    between atoms: _278  and  _279
REMARK  120  A    between atoms: _279  and  _280
REMARK  121  A    between atoms: _280  and  _281
REMARK  122  A    between atoms: _286  and  _287
REMARK  123  A    between atoms: _292  and  _294
REMARK  124  A    between atoms: _294  and  _295
REMARK  125  A    between atoms: _297  and  _299
REMARK  126  A    between atoms: _299  and  _300
REMARK  127  A    between atoms: _299  and  _302
REMARK  128  A    between atoms: _305  and  _307
REMARK  129  A    between atoms: _307  and  _308
REMARK  130  A    between atoms: _307  and  _310
REMARK  131  A    between atoms: _310  and  _311
REMARK  132  A    between atoms: _316  and  _317
REMARK                            x       y       z     vdW  Elec       q    Type
REMARK                         _______ _______ _______ _____ _____    ______ ____
ROOT
ATOM      1  CB  HIS A   1      24.326  10.305  35.617  0.00  0.00    +0.072 C 
ENDROOT
BRANCH   1   2
ATOM      2  CG  HIS A   1      24.631   9.532  34.368  0.00  0.00    +0.082 A 
ATOM      3  ND1 HIS A   1      25.247   8.300  34.389  0.00  0.00    -0.227 NA
ATOM      4  CE1 HIS A   1      25.451   7.889  33.151  0.00  0.00    +0.199 A 
ATOM      5  NE2 HIS A   1      24.987   8.810  32.326  0.00  0.00    -0.221 NA
ATOM      6  CD2 HIS A   1      24.465   9.846  33.061  0.00  0.00    +0.115 A 
ENDBRANCH   1   2
BRANCH   1   7
ATOM      7  CA  HIS A   1      22.835  10.348  36.002  0.00  0.00    +0.139 C 
BRANCH   7   8
ATOM      8  N   HIS A   1      22.459   9.219  36.855  0.00  0.00    -0.239 NA
ATOM      9  H   HIS A   1      23.140   8.454  37.036  0.00  0.00    +0.142 HD
ENDBRANCH   7   8
BRANCH   7  10
ATOM     10  C   HIS A   1      21.933  10.526  34.788  0.00  0.00    +0.224 C 
ATOM     11  O   HIS A   1      21.897  11.599  34.184  0.00  0.00    -0.287 OA
ENDBRANCH   7  10
ENDBRANCH   1   7
TORSDOF 4
REMARK  Name = ../refined-set-2016/1f5k/1f5k_pocket.pdb
REMARK  132 active torsions:
REMARK  status: ('A' for Active; 'I' for Inactive)
REMARK    1  A    between atoms: _1  and  _3
REMARK    2  A    between atoms: _3  and  _4
REMARK    3  A    between atoms: _3  and  _6
REMARK    4  A    between atoms: _6  and  _7
REMARK    5  A    between atoms: _10  and  _12
REMARK    6  A    between atoms: _12  and  _13
REMARK    7  A    between atoms: _12  and  _15
REMARK    8  A    between atoms: _15  and  _16
REMARK    9  A    between atoms: _21  and  _23
REMARK   10  A    between atoms: _23  and  _24
REMARK   11  A    between atoms: _23  and  _26
REMARK   12  A    between atoms: _26  and  _27
REMARK   13  A    between atoms: _32  and  _34
REMARK   14  A    between atoms: _34  and  _35
REMARK   15  A    between atoms: _34  and  _37
REMARK   16  A    between atoms: _37  and  _38
REMARK   17  A    between atoms: _41  and  _43
REMARK   18  A    between atoms: _43  and  _44
REMARK   19  A    between atoms: _43  and  _46
REMARK   20  A    between atoms: _46  and  _47
REMARK   21  A    between atoms: _50  and  _52
REMARK   22  A    between atoms: _52  and  _53
REMARK   23  A    between atoms: _52  and  _55
REMARK   24  A    between atoms: _55  and  _56
REMARK   25  A    between atoms: _56  and  _57
REMARK   26  A    between atoms: _57  and  _58
REMARK   27  A    between atoms: _58  and  _59
REMARK   28  A    between atoms: _63  and  _65
REMARK   29  A    between atoms: _65  and  _66
REMARK   30  A    between atoms: _65  and  _68
REMARK   31  A    between atoms: _68  and  _69
REMARK   32  A    between atoms: _71  and  _73
REMARK   33  A    between atoms: _73  and  _74
REMARK   34  A    between atoms: _73  and  _76
REMARK   35  A    between atoms: _79  and  _81
REMARK   36  A    between atoms: _81  and  _82
REMARK   37  A    between atoms: _81  and  _84
REMARK   38  A    between atoms: _84  and  _85
REMARK   39  A    between atoms: _90  and  _91
REMARK   40  A    between atoms: _93  and  _95
REMARK   41  A    between atoms: _95  and  _96
REMARK   42  A    between atoms: _99  and  _101
REMARK   43  A    between atoms: _101  and  _102
REMARK   44  A    between atoms: _105  and  _107
REMARK   45  A    between atoms: _107  and  _108
REMARK   46  A    between atoms: _107  and  _110
REMARK   47  A    between atoms: _110  and  _111
REMARK   48  A    between atoms: _114  and  _116
REMARK   49  A    between atoms: _116  and  _117
REMARK   50  A    between atoms: _116  and  _119
REMARK   51  A    between atoms: _119  and  _120
REMARK   52  A    between atoms: _123  and  _125
REMARK   53  A    between atoms: _125  and  _126
REMARK   54  A    between atoms: _125  and  _128
REMARK   55  A    between atoms: _128  and  _129
REMARK   56  A    between atoms: _131  and  _133
REMARK   57  A    between atoms: _133  and  _134
REMARK   58  A    between atoms: _133  and  _136
REMARK   59  A    between atoms: _136  and  _137
REMARK   60  A    between atoms: _137  and  _256
REMARK   61  A    between atoms: _138  and  _140
REMARK   62  A    between atoms: _140  and  _141
REMARK   63  A    between atoms: _140  and  _143
REMARK   64  A    between atoms: _143  and  _144
REMARK   65  A    between atoms: _144  and  _145
REMARK   66  A    between atoms: _150  and  _152
REMARK   67  A    between atoms: _152  and  _153
REMARK   68  A    between atoms: _155  and  _157
REMARK   69  A    between atoms: _157  and  _158
REMARK   70  A    between atoms: _157  and  _160
REMARK   71  A    between atoms: _160  and  _161
REMARK   72  A    between atoms: _164  and  _166
REMARK   73  A    between atoms: _166  and  _167
REMARK   74  A    between atoms: _166  and  _169
REMARK   75  A    between atoms: _169  and  _170
REMARK   76  A    between atoms: _172  and  _174
REMARK   77  A    between atoms: _174  and  _175
REMARK   78  A    between atoms: _177  and  _179
REMARK   79  A    between atoms: _179  and  _180
REMARK   80  A    between atoms: _182  and  _184
REMARK   81  A    between atoms: _184  and  _185
REMARK   82  A    between atoms: _184  and  _187
REMARK   83  A    between atoms: _187  and  _188
REMARK   84  A    between atoms: _191  and  _193
REMARK   85  A    between atoms: _193  and  _194
REMARK   86  A    between atoms: _193  and  _196
REMARK   87  A    between atoms: _199  and  _201
REMARK   88  A    between atoms: _201  and  _202
REMARK   89  A    between atoms: _201  and  _204
REMARK   90  A    between atoms: _204  and  _205
REMARK   91  A    between atoms: _207  and  _209
REMARK   92  A    between atoms: _209  and  _210
REMARK   93  A    between atoms: _209  and  _212
REMARK   94  A    between atoms: _212  and  _213
REMARK   95  A    between atoms: _223  and  _225
REMARK   96  A    between atoms: _225  and  _226
REMARK   97  A    between atoms: _228  and  _230
REMARK   98  A    between atoms: _230  and  _231
REMARK   99  A    between atoms: _230  and  _233
REMARK  100  A    between atoms: _233  and  _234
REMARK  101  A    between atoms: _234  and  _235
REMARK  102  A    between atoms: _235  and  _236
REMARK  103  A    between atoms: _245  and  _247
REMARK  104  A    between atoms: _247  and  _248
REMARK  105  A    between atoms: _250  and  _252
REMARK  106  A    between atoms: _252  and  _253
REMARK  107  A    between atoms: _252  and  _255
REMARK  108  A    between atoms: _255  and  _256
REMARK  109  A    between atoms: _257  and  _259
REMARK  110  A    between atoms: _259  and  _260
REMARK  111  A    between atoms: _263  and  _265
REMARK  112  A    between atoms: _265  and  _266
REMARK  113  A    between atoms: _265  and  _268
REMARK  114  A    between atoms: _268  and  _269
REMARK  115  A    between atoms: _272  and  _274
REMARK  116  A    between atoms: _274  and  _275
REMARK  117  A    between atoms: _274  and  _277
REMARK  118  A    between atoms: _277  and  _278
REMARK  119  A    between atoms: _278  and  _279
REMARK  120  A    between atoms: _279  and  _280
REMARK  121  A    between atoms: _280  and  _281
REMARK  122  A    between atoms: _286  and  _287
REMARK  123  A    between atoms: _292  and  _294
REMARK  124  A    between atoms: _294  and  _295
REMARK  125  A    between atoms: _297  and  _299
REMARK  126  A    between atoms: _299  and  _300
REMARK  127  A    between atoms: _299  and  _302
REMARK  128  A    between atoms: _305  and  _307
REMARK  129  A    between atoms: _307  and  _308
REMARK  130  A    between atoms: _307  and  _310
REMARK  131  A    between atoms: _310  and  _311
REMARK  132  A    between atoms: _316  and  _317
REMARK                            x       y       z     vdW  Elec       q    Type
REMARK                         _______ _______ _______ _____ _____    ______ ____
ROOT
ATOM      1  CB  HIS A   1      28.965   9.084  37.512  0.00  0.00    +0.072 C 
ENDROOT
BRANCH   1   2
ATOM      2  CG  HIS A   1      28.875  10.058  36.381  0.00  0.00    +0.082 A 
ATOM      3  ND1 HIS A   1      27.716  10.739  36.074  0.00  0.00    -0.227 NA
ATOM      4  CE1 HIS A   1      27.938  11.544  35.051  0.00  0.00    +0.199 A 
ATOM      5  NE2 HIS A   1      29.200  11.412  34.683  0.00  0.00    -0.221 NA
ATOM      6  CD2 HIS A   1      29.807  10.487  35.497  0.00  0.00    +0.115 A 
ENDBRANCH   1   2
BRANCH   1   7
ATOM      7  CA  HIS A   1      29.997   9.471  38.572  0.00  0.00    +0.139 C 
BRANCH   7   8
ATOM      8  N   HIS A   1      31.351   9.352  38.057  0.00  0.00    -0.239 NA
ATOM      9  H   HIS A   1      31.647   8.444  37.645  0.00  0.00    +0.142 HD
ENDBRANCH   7   8
BRANCH   7  10
ATOM     10  C   HIS A   1      29.966   8.492  39.734  0.00  0.00    +0.224 C 
ATOM     11  O   HIS A   1      30.320   7.323  39.580  0.00  0.00    -0.287 OA
ENDBRANCH   7  10
ENDBRANCH   1   7
TORSDOF 4
REMARK  Name = ../refined-set-2016/1f5k/1f5k_pocket.pdb
REMARK  132 active torsions:
REMARK  status: ('A' for Active; 'I' for Inactive)
REMARK    1  A    between atoms: _1  and  _3
REMARK    2  A    between atoms: _3  and  _4
REMARK    3  A    between atoms: _3  and  _6
REMARK    4  A    between atoms: _6  and  _7
REMARK    5  A    between atoms: _10  and  _12
REMARK    6  A    between atoms: _12  and  _13
REMARK    7  A    between atoms: _12  and  _15
REMARK    8  A    between atoms: _15  and  _16
REMARK    9  A    between atoms: _21  and  _23
REMARK   10  A    between atoms: _23  and  _24
REMARK   11  A    between atoms: _23  and  _26
REMARK   12  A    between atoms: _26  and  _27
REMARK   13  A    between atoms: _32  and  _34
REMARK   14  A    between atoms: _34  and  _35
REMARK   15  A    between atoms: _34  and  _37
REMARK   16  A    between atoms: _37  and  _38
REMARK   17  A    between atoms: _41  and  _43
REMARK   18  A    between atoms: _43  and  _44
REMARK   19  A    between atoms: _43  and  _46
REMARK   20  A    between atoms: _46  and  _47
REMARK   21  A    between atoms: _50  and  _52
REMARK   22  A    between atoms: _52  and  _53
REMARK   23  A    between atoms: _52  and  _55
REMARK   24  A    between atoms: _55  and  _56
REMARK   25  A    between atoms: _56  and  _57
REMARK   26  A    between atoms: _57  and  _58
REMARK   27  A    between atoms: _58  and  _59
REMARK   28  A    between atoms: _63  and  _65
REMARK   29  A    between atoms: _65  and  _66
REMARK   30  A    between atoms: _65  and  _68
REMARK   31  A    between atoms: _68  and  _69
REMARK   32  A    between atoms: _71  and  _73
REMARK   33  A    between atoms: _73  and  _74
REMARK   34  A    between atoms: _73  and  _76
REMARK   35  A    between atoms: _79  and  _81
REMARK   36  A    between atoms: _81  and  _82
REMARK   37  A    between atoms: _81  and  _84
REMARK   38  A    between atoms: _84  and  _85
REMARK   39  A    between atoms: _90  and  _91
REMARK   40  A    between atoms: _93  and  _95
REMARK   41  A    between atoms: _95  and  _96
REMARK   42  A    between atoms: _99  and  _101
REMARK   43  A    between atoms: _101  and  _102
REMARK   44  A    between atoms: _105  and  _107
REMARK   45  A    between atoms: _107  and  _108
REMARK   46  A    between atoms: _107  and  _110
REMARK   47  A    between atoms: _110  and  _111
REMARK   48  A    between atoms: _114  and  _116
REMARK   49  A    between atoms: _116  and  _117
REMARK   50  A    between atoms: _116  and  _119
REMARK   51  A    between atoms: _119  and  _120
REMARK   52  A    between atoms: _123  and  _125
REMARK   53  A    between atoms: _125  and  _126
REMARK   54  A    between atoms: _125  and  _128
REMARK   55  A    between atoms: _128  and  _129
REMARK   56  A    between atoms: _131  and  _133
REMARK   57  A    between atoms: _133  and  _134
REMARK   58  A    between atoms: _133  and  _136
REMARK   59  A    between atoms: _136  and  _137
REMARK   60  A    between atoms: _137  and  _256
REMARK   61  A    between atoms: _138  and  _140
REMARK   62  A    between atoms: _140  and  _141
REMARK   63  A    between atoms: _140  and  _143
REMARK   64  A    between atoms: _143  and  _144
REMARK   65  A    between atoms: _144  and  _145
REMARK   66  A    between atoms: _150  and  _152
REMARK   67  A    between atoms: _152  and  _153
REMARK   68  A    between atoms: _155  and  _157
REMARK   69  A    between atoms: _157  and  _158
REMARK   70  A    between atoms: _157  and  _160
REMARK   71  A    between atoms: _160  and  _161
REMARK   72  A    between atoms: _164  and  _166
REMARK   73  A    between atoms: _166  and  _167
REMARK   74  A    between atoms: _166  and  _169
REMARK   75  A    between atoms: _169  and  _170
REMARK   76  A    between atoms: _172  and  _174
REMARK   77  A    between atoms: _174  and  _175
REMARK   78  A    between atoms: _177  and  _179
REMARK   79  A    between atoms: _179  and  _180
REMARK   80  A    between atoms: _182  and  _184
REMARK   81  A    between atoms: _184  and  _185
REMARK   82  A    between atoms: _184  and  _187
REMARK   83  A    between atoms: _187  and  _188
REMARK   84  A    between atoms: _191  and  _193
REMARK   85  A    between atoms: _193  and  _194
REMARK   86  A    between atoms: _193  and  _196
REMARK   87  A    between atoms: _199  and  _201
REMARK   88  A    between atoms: _201  and  _202
REMARK   89  A    between atoms: _201  and  _204
REMARK   90  A    between atoms: _204  and  _205
REMARK   91  A    between atoms: _207  and  _209
REMARK   92  A    between atoms: _209  and  _210
REMARK   93  A    between atoms: _209  and  _212
REMARK   94  A    between atoms: _212  and  _213
REMARK   95  A    between atoms: _223  and  _225
REMARK   96  A    between atoms: _225  and  _226
REMARK   97  A    between atoms: _228  and  _230
REMARK   98  A    between atoms: _230  and  _231
REMARK   99  A    between atoms: _230  and  _233
REMARK  100  A    between atoms: _233  and  _234
REMARK  101  A    between atoms: _234  and  _235
REMARK  102  A    between atoms: _235  and  _236
REMARK  103  A    between atoms: _245  and  _247
REMARK  104  A    between atoms: _247  and  _248
REMARK  105  A    between atoms: _250  and  _252
REMARK  106  A    between atoms: _252  and  _253
REMARK  107  A    between atoms: _252  and  _255
REMARK  108  A    between atoms: _255  and  _256
REMARK  109  A    between atoms: _257  and  _259
REMARK  110  A    between atoms: _259  and  _260
REMARK  111  A    between atoms: _263  and  _265
REMARK  112  A    between atoms: _265  and  _266
REMARK  113  A    between atoms: _265  and  _268
REMARK  114  A    between atoms: _268  and  _269
REMARK  115  A    between atoms: _272  and  _274
REMARK  116  A    between atoms: _274  and  _275
REMARK  117  A    between atoms: _274  and  _277
REMARK  118  A    between atoms: _277  and  _278
REMARK  119  A    between atoms: _278  and  _279
REMARK  120  A    between atoms: _279  and  _280
REMARK  121  A    between atoms: _280  and  _281
REMARK  122  A    between atoms: _286  and  _287
REMARK  123  A    between atoms: _292  and  _294
REMARK  124  A    between atoms: _294  and  _295
REMARK  125  A    between atoms: _297  and  _299
REMARK  126  A    between atoms: _299  and  _300
REMARK  127  A    between atoms: _299  and  _302
REMARK  128  A    between atoms: _305  and  _307
REMARK  129  A    between atoms: _307  and  _308
REMARK  130  A    between atoms: _307  and  _310
REMARK  131  A    between atoms: _310  and  _311
REMARK  132  A    between atoms: _316  and  _317
REMARK                            x       y       z     vdW  Elec       q    Type
REMARK                         _______ _______ _______ _____ _____    ______ ____
ROOT
ATOM      1  CA  ASP A   1      25.386   5.992  39.780  0.00  0.00    +0.144 C 
ENDROOT
BRANCH   1   2
ATOM      2  N   ASP A   1      26.177   5.871  41.000  0.00  0.00    -0.239 NA
ATOM      3  H   ASP A   1      27.158   5.534  40.931  0.00  0.00    +0.142 HD
ENDBRANCH   1   2
BRANCH   1   4
ATOM      4  C   ASP A   1      24.507   4.764  39.588  0.00  0.00    +0.225 C 
ATOM      5  O   ASP A   1      24.809   3.870  38.792  0.00  0.00    -0.287 OA
ENDBRANCH   1   4
BRANCH   1   6
ATOM      6  CB  ASP A   1      26.309   6.184  38.580  0.00  0.00    +0.139 C 
BRANCH   6   7
ATOM      7  CG  ASP A   1      25.613   6.833  37.406  0.00  0.00    +0.367 C 
ATOM      8  OD2 ASP A   1      24.436   7.226  37.542  0.00  0.00    -0.246 OA
ATOM      9  OD1 ASP A   1      26.255   6.953  36.344  0.00  0.00    -0.246 OA
ENDBRANCH   6   7
ENDBRANCH   1   6
TORSDOF 4
REMARK  Name = ../refined-set-2016/1f5k/1f5k_pocket.pdb
REMARK  132 active torsions:
REMARK  status: ('A' for Active; 'I' for Inactive)
REMARK    1  A    between atoms: _1  and  _3
REMARK    2  A    between atoms: _3  and  _4
REMARK    3  A    between atoms: _3  and  _6
REMARK    4  A    between atoms: _6  and  _7
REMARK    5  A    between atoms: _10  and  _12
REMARK    6  A    between atoms: _12  and  _13
REMARK    7  A    between atoms: _12  and  _15
REMARK    8  A    between atoms: _15  and  _16
REMARK    9  A    between atoms: _21  and  _23
REMARK   10  A    between atoms: _23  and  _24
REMARK   11  A    between atoms: _23  and  _26
REMARK   12  A    between atoms: _26  and  _27
REMARK   13  A    between atoms: _32  and  _34
REMARK   14  A    between atoms: _34  and  _35
REMARK   15  A    between atoms: _34  and  _37
REMARK   16  A    between atoms: _37  and  _38
REMARK   17  A    between atoms: _41  and  _43
REMARK   18  A    between atoms: _43  and  _44
REMARK   19  A    between atoms: _43  and  _46
REMARK   20  A    between atoms: _46  and  _47
REMARK   21  A    between atoms: _50  and  _52
REMARK   22  A    between atoms: _52  and  _53
REMARK   23  A    between atoms: _52  and  _55
REMARK   24  A    between atoms: _55  and  _56
REMARK   25  A    between atoms: _56  and  _57
REMARK   26  A    between atoms: _57  and  _58
REMARK   27  A    between atoms: _58  and  _59
REMARK   28  A    between atoms: _63  and  _65
REMARK   29  A    between atoms: _65  and  _66
REMARK   30  A    between atoms: _65  and  _68
REMARK   31  A    between atoms: _68  and  _69
REMARK   32  A    between atoms: _71  and  _73
REMARK   33  A    between atoms: _73  and  _74
REMARK   34  A    between atoms: _73  and  _76
REMARK   35  A    between atoms: _79  and  _81
REMARK   36  A    between atoms: _81  and  _82
REMARK   37  A    between atoms: _81  and  _84
REMARK   38  A    between atoms: _84  and  _85
REMARK   39  A    between atoms: _90  and  _91
REMARK   40  A    between atoms: _93  and  _95
REMARK   41  A    between atoms: _95  and  _96
REMARK   42  A    between atoms: _99  and  _101
REMARK   43  A    between atoms: _101  and  _102
REMARK   44  A    between atoms: _105  and  _107
REMARK   45  A    between atoms: _107  and  _108
REMARK   46  A    between atoms: _107  and  _110
REMARK   47  A    between atoms: _110  and  _111
REMARK   48  A    between atoms: _114  and  _116
REMARK   49  A    between atoms: _116  and  _117
REMARK   50  A    between atoms: _116  and  _119
REMARK   51  A    between atoms: _119  and  _120
REMARK   52  A    between atoms: _123  and  _125
REMARK   53  A    between atoms: _125  and  _126
REMARK   54  A    between atoms: _125  and  _128
REMARK   55  A    between atoms: _128  and  _129
REMARK   56  A    between atoms: _131  and  _133
REMARK   57  A    between atoms: _133  and  _134
REMARK   58  A    between atoms: _133  and  _136
REMARK   59  A    between atoms: _136  and  _137
REMARK   60  A    between atoms: _137  and  _256
REMARK   61  A    between atoms: _138  and  _140
REMARK   62  A    between atoms: _140  and  _141
REMARK   63  A    between atoms: _140  and  _143
REMARK   64  A    between atoms: _143  and  _144
REMARK   65  A    between atoms: _144  and  _145
REMARK   66  A    between atoms: _150  and  _152
REMARK   67  A    between atoms: _152  and  _153
REMARK   68  A    between atoms: _155  and  _157
REMARK   69  A    between atoms: _157  and  _158
REMARK   70  A    between atoms: _157  and  _160
REMARK   71  A    between atoms: _160  and  _161
REMARK   72  A    between atoms: _164  and  _166
REMARK   73  A    between atoms: _166  and  _167
REMARK   74  A    between atoms: _166  and  _169
REMARK   75  A    between atoms: _169  and  _170
REMARK   76  A    between atoms: _172  and  _174
REMARK   77  A    between atoms: _174  and  _175
REMARK   78  A    between atoms: _177  and  _179
REMARK   79  A    between atoms: _179  and  _180
REMARK   80  A    between atoms: _182  and  _184
REMARK   81  A    between atoms: _184  and  _185
REMARK   82  A    between atoms: _184  and  _187
REMARK   83  A    between atoms: _187  and  _188
REMARK   84  A    between atoms: _191  and  _193
REMARK   85  A    between atoms: _193  and  _194
REMARK   86  A    between atoms: _193  and  _196
REMARK   87  A    between atoms: _199  and  _201
REMARK   88  A    between atoms: _201  and  _202
REMARK   89  A    between atoms: _201  and  _204
REMARK   90  A    between atoms: _204  and  _205
REMARK   91  A    between atoms: _207  and  _209
REMARK   92  A    between atoms: _209  and  _210
REMARK   93  A    between atoms: _209  and  _212
REMARK   94  A    between atoms: _212  and  _213
REMARK   95  A    between atoms: _223  and  _225
REMARK   96  A    between atoms: _225  and  _226
REMARK   97  A    between atoms: _228  and  _230
REMARK   98  A    between atoms: _230  and  _231
REMARK   99  A    between atoms: _230  and  _233
REMARK  100  A    between atoms: _233  and  _234
REMARK  101  A    between atoms: _234  and  _235
REMARK  102  A    between atoms: _235  and  _236
REMARK  103  A    between atoms: _245  and  _247
REMARK  104  A    between atoms: _247  and  _248
REMARK  105  A    between atoms: _250  and  _252
REMARK  106  A    between atoms: _252  and  _253
REMARK  107  A    between atoms: _252  and  _255
REMARK  108  A    between atoms: _255  and  _256
REMARK  109  A    between atoms: _257  and  _259
REMARK  110  A    between atoms: _259  and  _260
REMARK  111  A    between atoms: _263  and  _265
REMARK  112  A    between atoms: _265  and  _266
REMARK  113  A    between atoms: _265  and  _268
REMARK  114  A    between atoms: _268  and  _269
REMARK  115  A    between atoms: _272  and  _274
REMARK  116  A    between atoms: _274  and  _275
REMARK  117  A    between atoms: _274  and  _277
REMARK  118  A    between atoms: _277  and  _278
REMARK  119  A    between atoms: _278  and  _279
REMARK  120  A    between atoms: _279  and  _280
REMARK  121  A    between atoms: _280  and  _281
REMARK  122  A    between atoms: _286  and  _287
REMARK  123  A    between atoms: _292  and  _294
REMARK  124  A    between atoms: _294  and  _295
REMARK  125  A    between atoms: _297  and  _299
REMARK  126  A    between atoms: _299  and  _300
REMARK  127  A    between atoms: _299  and  _302
REMARK  128  A    between atoms: _305  and  _307
REMARK  129  A    between atoms: _307  and  _308
REMARK  130  A    between atoms: _307  and  _310
REMARK  131  A    between atoms: _310  and  _311
REMARK  132  A    between atoms: _316  and  _317
REMARK                            x       y       z     vdW  Elec       q    Type
REMARK                         _______ _______ _______ _____ _____    ______ ____
ROOT
ATOM      1  CA  ILE A   1      27.302  -5.071  27.266  0.00  0.00    +0.133 C 
ENDROOT
BRANCH   1   2
ATOM      2  N   ILE A   1      28.022  -6.319  27.042  0.00  0.00    -0.239 NA
ATOM      3  H   ILE A   1      28.498  -6.474  26.130  0.00  0.00    +0.142 HD
ENDBRANCH   1   2
BRANCH   1   4
ATOM      4  CB  ILE A   1      28.250  -3.858  27.414  0.00  0.00    +0.023 C 
ATOM      5  CG2 ILE A   1      28.991  -3.946  28.733  0.00  0.00    +0.002 C 
BRANCH   4   6
ATOM      6  CG1 ILE A   1      29.235  -3.790  26.246  0.00  0.00    +0.002 C 
ATOM      7  CD1 ILE A   1      30.194  -2.608  26.317  0.00  0.00    +0.000 C 
ENDBRANCH   4   6
ENDBRANCH   1   4
BRANCH   1   8
ATOM      8  C   ILE A   1      26.362  -4.895  26.088  0.00  0.00    +0.224 C 
ATOM      9  O   ILE A   1      26.654  -5.357  24.979  0.00  0.00    -0.287 OA
ENDBRANCH   1   8
TORSDOF 4
REMARK  Name = ../refined-set-2016/1f5k/1f5k_pocket.pdb
REMARK  132 active torsions:
REMARK  status: ('A' for Active; 'I' for Inactive)
REMARK    1  A    between atoms: _1  and  _3
REMARK    2  A    between atoms: _3  and  _4
REMARK    3  A    between atoms: _3  and  _6
REMARK    4  A    between atoms: _6  and  _7
REMARK    5  A    between atoms: _10  and  _12
REMARK    6  A    between atoms: _12  and  _13
REMARK    7  A    between atoms: _12  and  _15
REMARK    8  A    between atoms: _15  and  _16
REMARK    9  A    between atoms: _21  and  _23
REMARK   10  A    between atoms: _23  and  _24
REMARK   11  A    between atoms: _23  and  _26
REMARK   12  A    between atoms: _26  and  _27
REMARK   13  A    between atoms: _32  and  _34
REMARK   14  A    between atoms: _34  and  _35
REMARK   15  A    between atoms: _34  and  _37
REMARK   16  A    between atoms: _37  and  _38
REMARK   17  A    between atoms: _41  and  _43
REMARK   18  A    between atoms: _43  and  _44
REMARK   19  A    between atoms: _43  and  _46
REMARK   20  A    between atoms: _46  and  _47
REMARK   21  A    between atoms: _50  and  _52
REMARK   22  A    between atoms: _52  and  _53
REMARK   23  A    between atoms: _52  and  _55
REMARK   24  A    between atoms: _55  and  _56
REMARK   25  A    between atoms: _56  and  _57
REMARK   26  A    between atoms: _57  and  _58
REMARK   27  A    between atoms: _58  and  _59
REMARK   28  A    between atoms: _63  and  _65
REMARK   29  A    between atoms: _65  and  _66
REMARK   30  A    between atoms: _65  and  _68
REMARK   31  A    between atoms: _68  and  _69
REMARK   32  A    between atoms: _71  and  _73
REMARK   33  A    between atoms: _73  and  _74
REMARK   34  A    between atoms: _73  and  _76
REMARK   35  A    between atoms: _79  and  _81
REMARK   36  A    between atoms: _81  and  _82
REMARK   37  A    between atoms: _81  and  _84
REMARK   38  A    between atoms: _84  and  _85
REMARK   39  A    between atoms: _90  and  _91
REMARK   40  A    between atoms: _93  and  _95
REMARK   41  A    between atoms: _95  and  _96
REMARK   42  A    between atoms: _99  and  _101
REMARK   43  A    between atoms: _101  and  _102
REMARK   44  A    between atoms: _105  and  _107
REMARK   45  A    between atoms: _107  and  _108
REMARK   46  A    between atoms: _107  and  _110
REMARK   47  A    between atoms: _110  and  _111
REMARK   48  A    between atoms: _114  and  _116
REMARK   49  A    between atoms: _116  and  _117
REMARK   50  A    between atoms: _116  and  _119
REMARK   51  A    between atoms: _119  and  _120
REMARK   52  A    between atoms: _123  and  _125
REMARK   53  A    between atoms: _125  and  _126
REMARK   54  A    between atoms: _125  and  _128
REMARK   55  A    between atoms: _128  and  _129
REMARK   56  A    between atoms: _131  and  _133
REMARK   57  A    between atoms: _133  and  _134
REMARK   58  A    between atoms: _133  and  _136
REMARK   59  A    between atoms: _136  and  _137
REMARK   60  A    between atoms: _137  and  _256
REMARK   61  A    between atoms: _138  and  _140
REMARK   62  A    between atoms: _140  and  _141
REMARK   63  A    between atoms: _140  and  _143
REMARK   64  A    between atoms: _143  and  _144
REMARK   65  A    between atoms: _144  and  _145
REMARK   66  A    between atoms: _150  and  _152
REMARK   67  A    between atoms: _152  and  _153
REMARK   68  A    between atoms: _155  and  _157
REMARK   69  A    between atoms: _157  and  _158
REMARK   70  A    between atoms: _157  and  _160
REMARK   71  A    between atoms: _160  and  _161
REMARK   72  A    between atoms: _164  and  _166
REMARK   73  A    between atoms: _166  and  _167
REMARK   74  A    between atoms: _166  and  _169
REMARK   75  A    between atoms: _169  and  _170
REMARK   76  A    between atoms: _172  and  _174
REMARK   77  A    between atoms: _174  and  _175
REMARK   78  A    between atoms: _177  and  _179
REMARK   79  A    between atoms: _179  and  _180
REMARK   80  A    between atoms: _182  and  _184
REMARK   81  A    between atoms: _184  and  _185
REMARK   82  A    between atoms: _184  and  _187
REMARK   83  A    between atoms: _187  and  _188
REMARK   84  A    between atoms: _191  and  _193
REMARK   85  A    between atoms: _193  and  _194
REMARK   86  A    between atoms: _193  and  _196
REMARK   87  A    between atoms: _199  and  _201
REMARK   88  A    between atoms: _201  and  _202
REMARK   89  A    between atoms: _201  and  _204
REMARK   90  A    between atoms: _204  and  _205
REMARK   91  A    between atoms: _207  and  _209
REMARK   92  A    between atoms: _209  and  _210
REMARK   93  A    between atoms: _209  and  _212
REMARK   94  A    between atoms: _212  and  _213
REMARK   95  A    between atoms: _223  and  _225
REMARK   96  A    between atoms: _225  and  _226
REMARK   97  A    between atoms: _228  and  _230
REMARK   98  A    between atoms: _230  and  _231
REMARK   99  A    between atoms: _230  and  _233
REMARK  100  A    between atoms: _233  and  _234
REMARK  101  A    between atoms: _234  and  _235
REMARK  102  A    between atoms: _235  and  _236
REMARK  103  A    between atoms: _245  and  _247
REMARK  104  A    between atoms: _247  and  _248
REMARK  105  A    between atoms: _250  and  _252
REMARK  106  A    between atoms: _252  and  _253
REMARK  107  A    between atoms: _252  and  _255
REMARK  108  A    between atoms: _255  and  _256
REMARK  109  A    between atoms: _257  and  _259
REMARK  110  A    between atoms: _259  and  _260
REMARK  111  A    between atoms: _263  and  _265
REMARK  112  A    between atoms: _265  and  _266
REMARK  113  A    between atoms: _265  and  _268
REMARK  114  A    between atoms: _268  and  _269
REMARK  115  A    between atoms: _272  and  _274
REMARK  116  A    between atoms: _274  and  _275
REMARK  117  A    between atoms: _274  and  _277
REMARK  118  A    between atoms: _277  and  _278
REMARK  119  A    between atoms: _278  and  _279
REMARK  120  A    between atoms: _279  and  _280
REMARK  121  A    between atoms: _280  and  _281
REMARK  122  A    between atoms: _286  and  _287
REMARK  123  A    between atoms: _292  and  _294
REMARK  124  A    between atoms: _294  and  _295
REMARK  125  A    between atoms: _297  and  _299
REMARK  126  A    between atoms: _299  and  _300
REMARK  127  A    between atoms: _299  and  _302
REMARK  128  A    between atoms: _305  and  _307
REMARK  129  A    between atoms: _307  and  _308
REMARK  130  A    between atoms: _307  and  _310
REMARK  131  A    between atoms: _310  and  _311
REMARK  132  A    between atoms: _316  and  _317
REMARK                            x       y       z     vdW  Elec       q    Type
REMARK                         _______ _______ _______ _____ _____    ______ ____
ROOT
ATOM      1  CG  LYS A   1      26.705   8.201  20.351  0.00  0.00    -0.000 C 
ENDROOT
BRANCH   1   2
ATOM      2  CB  LYS A   1      27.550   7.010  19.866  0.00  0.00    +0.025 C 
BRANCH   2   3
ATOM      3  CA  LYS A   1      26.698   5.766  19.598  0.00  0.00    +0.133 C 
BRANCH   3   4
ATOM      4  N   LYS A   1      25.977   5.318  20.805  0.00  0.00    -0.239 NA
ATOM      5  H   LYS A   1      26.093   5.883  21.670  0.00  0.00    +0.142 HD
ENDBRANCH   3   4
BRANCH   3   6
ATOM      6  C   LYS A   1      27.620   4.646  19.135  0.00  0.00    +0.224 C 
ATOM      7  O   LYS A   1      28.274   3.927  19.871  0.00  0.00    -0.287 OA
ENDBRANCH   3   6
ENDBRANCH   2   3
ENDBRANCH   1   2
BRANCH   1   8
ATOM      8  CD  LYS A   1      25.628   8.638  19.351  0.00  0.00    -0.024 C 
BRANCH   8   9
ATOM      9  CE  LYS A   1      24.797   9.829  19.844  0.00  0.00    -0.086 C 
BRANCH   9  10
ATOM     10  NZ  LYS A   1      23.757  10.243  18.889  0.00  0.00    +0.380 N 
ATOM     11  HZ1 LYS A   1      23.231  11.051  19.280  0.00  0.00    -0.089 HD
ATOM     12  HZ2 LYS A   1      23.105   9.450  18.724  0.00  0.00    -0.089 HD
ATOM     13  HZ3 LYS A   1      24.203  10.520  17.991  0.00  0.00    -0.089 HD
ENDBRANCH   9  10
ENDBRANCH   8   9
ENDBRANCH   1   8
TORSDOF 7
REMARK  Name = ../refined-set-2016/1f5k/1f5k_pocket.pdb
REMARK  132 active torsions:
REMARK  status: ('A' for Active; 'I' for Inactive)
REMARK    1  A    between atoms: _1  and  _3
REMARK    2  A    between atoms: _3  and  _4
REMARK    3  A    between atoms: _3  and  _6
REMARK    4  A    between atoms: _6  and  _7
REMARK    5  A    between atoms: _10  and  _12
REMARK    6  A    between atoms: _12  and  _13
REMARK    7  A    between atoms: _12  and  _15
REMARK    8  A    between atoms: _15  and  _16
REMARK    9  A    between atoms: _21  and  _23
REMARK   10  A    between atoms: _23  and  _24
REMARK   11  A    between atoms: _23  and  _26
REMARK   12  A    between atoms: _26  and  _27
REMARK   13  A    between atoms: _32  and  _34
REMARK   14  A    between atoms: _34  and  _35
REMARK   15  A    between atoms: _34  and  _37
REMARK   16  A    between atoms: _37  and  _38
REMARK   17  A    between atoms: _41  and  _43
REMARK   18  A    between atoms: _43  and  _44
REMARK   19  A    between atoms: _43  and  _46
REMARK   20  A    between atoms: _46  and  _47
REMARK   21  A    between atoms: _50  and  _52
REMARK   22  A    between atoms: _52  and  _53
REMARK   23  A    between atoms: _52  and  _55
REMARK   24  A    between atoms: _55  and  _56
REMARK   25  A    between atoms: _56  and  _57
REMARK   26  A    between atoms: _57  and  _58
REMARK   27  A    between atoms: _58  and  _59
REMARK   28  A    between atoms: _63  and  _65
REMARK   29  A    between atoms: _65  and  _66
REMARK   30  A    between atoms: _65  and  _68
REMARK   31  A    between atoms: _68  and  _69
REMARK   32  A    between atoms: _71  and  _73
REMARK   33  A    between atoms: _73  and  _74
REMARK   34  A    between atoms: _73  and  _76
REMARK   35  A    between atoms: _79  and  _81
REMARK   36  A    between atoms: _81  and  _82
REMARK   37  A    between atoms: _81  and  _84
REMARK   38  A    between atoms: _84  and  _85
REMARK   39  A    between atoms: _90  and  _91
REMARK   40  A    between atoms: _93  and  _95
REMARK   41  A    between atoms: _95  and  _96
REMARK   42  A    between atoms: _99  and  _101
REMARK   43  A    between atoms: _101  and  _102
REMARK   44  A    between atoms: _105  and  _107
REMARK   45  A    between atoms: _107  and  _108
REMARK   46  A    between atoms: _107  and  _110
REMARK   47  A    between atoms: _110  and  _111
REMARK   48  A    between atoms: _114  and  _116
REMARK   49  A    between atoms: _116  and  _117
REMARK   50  A    between atoms: _116  and  _119
REMARK   51  A    between atoms: _119  and  _120
REMARK   52  A    between atoms: _123  and  _125
REMARK   53  A    between atoms: _125  and  _126
REMARK   54  A    between atoms: _125  and  _128
REMARK   55  A    between atoms: _128  and  _129
REMARK   56  A    between atoms: _131  and  _133
REMARK   57  A    between atoms: _133  and  _134
REMARK   58  A    between atoms: _133  and  _136
REMARK   59  A    between atoms: _136  and  _137
REMARK   60  A    between atoms: _137  and  _256
REMARK   61  A    between atoms: _138  and  _140
REMARK   62  A    between atoms: _140  and  _141
REMARK   63  A    between atoms: _140  and  _143
REMARK   64  A    between atoms: _143  and  _144
REMARK   65  A    between atoms: _144  and  _145
REMARK   66  A    between atoms: _150  and  _152
REMARK   67  A    between atoms: _152  and  _153
REMARK   68  A    between atoms: _155  and  _157
REMARK   69  A    between atoms: _157  and  _158
REMARK   70  A    between atoms: _157  and  _160
REMARK   71  A    between atoms: _160  and  _161
REMARK   72  A    between atoms: _164  and  _166
REMARK   73  A    between atoms: _166  and  _167
REMARK   74  A    between atoms: _166  and  _169
REMARK   75  A    between atoms: _169  and  _170
REMARK   76  A    between atoms: _172  and  _174
REMARK   77  A    between atoms: _174  and  _175
REMARK   78  A    between atoms: _177  and  _179
REMARK   79  A    between atoms: _179  and  _180
REMARK   80  A    between atoms: _182  and  _184
REMARK   81  A    between atoms: _184  and  _185
REMARK   82  A    between atoms: _184  and  _187
REMARK   83  A    between atoms: _187  and  _188
REMARK   84  A    between atoms: _191  and  _193
REMARK   85  A    between atoms: _193  and  _194
REMARK   86  A    between atoms: _193  and  _196
REMARK   87  A    between atoms: _199  and  _201
REMARK   88  A    between atoms: _201  and  _202
REMARK   89  A    between atoms: _201  and  _204
REMARK   90  A    between atoms: _204  and  _205
REMARK   91  A    between atoms: _207  and  _209
REMARK   92  A    between atoms: _209  and  _210
REMARK   93  A    between atoms: _209  and  _212
REMARK   94  A    between atoms: _212  and  _213
REMARK   95  A    between atoms: _223  and  _225
REMARK   96  A    between atoms: _225  and  _226
REMARK   97  A    between atoms: _228  and  _230
REMARK   98  A    between atoms: _230  and  _231
REMARK   99  A    between atoms: _230  and  _233
REMARK  100  A    between atoms: _233  and  _234
REMARK  101  A    between atoms: _234  and  _235
REMARK  102  A    between atoms: _235  and  _236
REMARK  103  A    between atoms: _245  and  _247
REMARK  104  A    between atoms: _247  and  _248
REMARK  105  A    between atoms: _250  and  _252
REMARK  106  A    between atoms: _252  and  _253
REMARK  107  A    between atoms: _252  and  _255
REMARK  108  A    between atoms: _255  and  _256
REMARK  109  A    between atoms: _257  and  _259
REMARK  110  A    between atoms: _259  and  _260
REMARK  111  A    between atoms: _263  and  _265
REMARK  112  A    between atoms: _265  and  _266
REMARK  113  A    between atoms: _265  and  _268
REMARK  114  A    between atoms: _268  and  _269
REMARK  115  A    between atoms: _272  and  _274
REMARK  116  A    between atoms: _274  and  _275
REMARK  117  A    between atoms: _274  and  _277
REMARK  118  A    between atoms: _277  and  _278
REMARK  119  A    between atoms: _278  and  _279
REMARK  120  A    between atoms: _279  and  _280
REMARK  121  A    between atoms: _280  and  _281
REMARK  122  A    between atoms: _286  and  _287
REMARK  123  A    between atoms: _292  and  _294
REMARK  124  A    between atoms: _294  and  _295
REMARK  125  A    between atoms: _297  and  _299
REMARK  126  A    between atoms: _299  and  _300
REMARK  127  A    between atoms: _299  and  _302
REMARK  128  A    between atoms: _305  and  _307
REMARK  129  A    between atoms: _307  and  _308
REMARK  130  A    between atoms: _307  and  _310
REMARK  131  A    between atoms: _310  and  _311
REMARK  132  A    between atoms: _316  and  _317
REMARK                            x       y       z     vdW  Elec       q    Type
REMARK                         _______ _______ _______ _____ _____    ______ ____
ROOT
ATOM      1  CA  SER A   1      32.330   9.266  18.744  0.00  0.00    +0.163 C 
ENDROOT
BRANCH   1   2
ATOM      2  N   SER A   1      32.312   8.026  17.964  0.00  0.00    -0.237 NA
ATOM      3  H   SER A   1      33.204   7.515  17.806  0.00  0.00    +0.142 HD
ENDBRANCH   1   2
BRANCH   1   4
ATOM      4  C   SER A   1      31.829  10.471  17.940  0.00  0.00    +0.227 C 
ATOM      5  O   SER A   1      31.251  11.406  18.500  0.00  0.00    -0.287 OA
ENDBRANCH   1   4
BRANCH   1   6
ATOM      6  CB  SER A   1      33.744   9.556  19.258  0.00  0.00    +0.162 C 
BRANCH   6   7
ATOM      7  OG  SER A   1      34.210   8.529  20.113  0.00  0.00    -0.380 OA
ATOM      8  H   SER A   1      35.123   8.750  20.425  0.00  0.00    +0.211 HD
ENDBRANCH   6   7
ENDBRANCH   1   6
TORSDOF 4
REMARK  Name = ../refined-set-2016/1f5k/1f5k_pocket.pdb
REMARK  132 active torsions:
REMARK  status: ('A' for Active; 'I' for Inactive)
REMARK    1  A    between atoms: _1  and  _3
REMARK    2  A    between atoms: _3  and  _4
REMARK    3  A    between atoms: _3  and  _6
REMARK    4  A    between atoms: _6  and  _7
REMARK    5  A    between atoms: _10  and  _12
REMARK    6  A    between atoms: _12  and  _13
REMARK    7  A    between atoms: _12  and  _15
REMARK    8  A    between atoms: _15  and  _16
REMARK    9  A    between atoms: _21  and  _23
REMARK   10  A    between atoms: _23  and  _24
REMARK   11  A    between atoms: _23  and  _26
REMARK   12  A    between atoms: _26  and  _27
REMARK   13  A    between atoms: _32  and  _34
REMARK   14  A    between atoms: _34  and  _35
REMARK   15  A    between atoms: _34  and  _37
REMARK   16  A    between atoms: _37  and  _38
REMARK   17  A    between atoms: _41  and  _43
REMARK   18  A    between atoms: _43  and  _44
REMARK   19  A    between atoms: _43  and  _46
REMARK   20  A    between atoms: _46  and  _47
REMARK   21  A    between atoms: _50  and  _52
REMARK   22  A    between atoms: _52  and  _53
REMARK   23  A    between atoms: _52  and  _55
REMARK   24  A    between atoms: _55  and  _56
REMARK   25  A    between atoms: _56  and  _57
REMARK   26  A    between atoms: _57  and  _58
REMARK   27  A    between atoms: _58  and  _59
REMARK   28  A    between atoms: _63  and  _65
REMARK   29  A    between atoms: _65  and  _66
REMARK   30  A    between atoms: _65  and  _68
REMARK   31  A    between atoms: _68  and  _69
REMARK   32  A    between atoms: _71  and  _73
REMARK   33  A    between atoms: _73  and  _74
REMARK   34  A    between atoms: _73  and  _76
REMARK   35  A    between atoms: _79  and  _81
REMARK   36  A    between atoms: _81  and  _82
REMARK   37  A    between atoms: _81  and  _84
REMARK   38  A    between atoms: _84  and  _85
REMARK   39  A    between atoms: _90  and  _91
REMARK   40  A    between atoms: _93  and  _95
REMARK   41  A    between atoms: _95  and  _96
REMARK   42  A    between atoms: _99  and  _101
REMARK   43  A    between atoms: _101  and  _102
REMARK   44  A    between atoms: _105  and  _107
REMARK   45  A    between atoms: _107  and  _108
REMARK   46  A    between atoms: _107  and  _110
REMARK   47  A    between atoms: _110  and  _111
REMARK   48  A    between atoms: _114  and  _116
REMARK   49  A    between atoms: _116  and  _117
REMARK   50  A    between atoms: _116  and  _119
REMARK   51  A    between atoms: _119  and  _120
REMARK   52  A    between atoms: _123  and  _125
REMARK   53  A    between atoms: _125  and  _126
REMARK   54  A    between atoms: _125  and  _128
REMARK   55  A    between atoms: _128  and  _129
REMARK   56  A    between atoms: _131  and  _133
REMARK   57  A    between atoms: _133  and  _134
REMARK   58  A    between atoms: _133  and  _136
REMARK   59  A    between atoms: _136  and  _137
REMARK   60  A    between atoms: _137  and  _256
REMARK   61  A    between atoms: _138  and  _140
REMARK   62  A    between atoms: _140  and  _141
REMARK   63  A    between atoms: _140  and  _143
REMARK   64  A    between atoms: _143  and  _144
REMARK   65  A    between atoms: _144  and  _145
REMARK   66  A    between atoms: _150  and  _152
REMARK   67  A    between atoms: _152  and  _153
REMARK   68  A    between atoms: _155  and  _157
REMARK   69  A    between atoms: _157  and  _158
REMARK   70  A    between atoms: _157  and  _160
REMARK   71  A    between atoms: _160  and  _161
REMARK   72  A    between atoms: _164  and  _166
REMARK   73  A    between atoms: _166  and  _167
REMARK   74  A    between atoms: _166  and  _169
REMARK   75  A    between atoms: _169  and  _170
REMARK   76  A    between atoms: _172  and  _174
REMARK   77  A    between atoms: _174  and  _175
REMARK   78  A    between atoms: _177  and  _179
REMARK   79  A    between atoms: _179  and  _180
REMARK   80  A    between atoms: _182  and  _184
REMARK   81  A    between atoms: _184  and  _185
REMARK   82  A    between atoms: _184  and  _187
REMARK   83  A    between atoms: _187  and  _188
REMARK   84  A    between atoms: _191  and  _193
REMARK   85  A    between atoms: _193  and  _194
REMARK   86  A    between atoms: _193  and  _196
REMARK   87  A    between atoms: _199  and  _201
REMARK   88  A    between atoms: _201  and  _202
REMARK   89  A    between atoms: _201  and  _204
REMARK   90  A    between atoms: _204  and  _205
REMARK   91  A    between atoms: _207  and  _209
REMARK   92  A    between atoms: _209  and  _210
REMARK   93  A    between atoms: _209  and  _212
REMARK   94  A    between atoms: _212  and  _213
REMARK   95  A    between atoms: _223  and  _225
REMARK   96  A    between atoms: _225  and  _226
REMARK   97  A    between atoms: _228  and  _230
REMARK   98  A    between atoms: _230  and  _231
REMARK   99  A    between atoms: _230  and  _233
REMARK  100  A    between atoms: _233  and  _234
REMARK  101  A    between atoms: _234  and  _235
REMARK  102  A    between atoms: _235  and  _236
REMARK  103  A    between atoms: _245  and  _247
REMARK  104  A    between atoms: _247  and  _248
REMARK  105  A    between atoms: _250  and  _252
REMARK  106  A    between atoms: _252  and  _253
REMARK  107  A    between atoms: _252  and  _255
REMARK  108  A    between atoms: _255  and  _256
REMARK  109  A    between atoms: _257  and  _259
REMARK  110  A    between atoms: _259  and  _260
REMARK  111  A    between atoms: _263  and  _265
REMARK  112  A    between atoms: _265  and  _266
REMARK  113  A    between atoms: _265  and  _268
REMARK  114  A    between atoms: _268  and  _269
REMARK  115  A    between atoms: _272  and  _274
REMARK  116  A    between atoms: _274  and  _275
REMARK  117  A    between atoms: _274  and  _277
REMARK  118  A    between atoms: _277  and  _278
REMARK  119  A    between atoms: _278  and  _279
REMARK  120  A    between atoms: _279  and  _280
REMARK  121  A    between atoms: _280  and  _281
REMARK  122  A    between atoms: _286  and  _287
REMARK  123  A    between atoms: _292  and  _294
REMARK  124  A    between atoms: _294  and  _295
REMARK  125  A    between atoms: _297  and  _299
REMARK  126  A    between atoms: _299  and  _300
REMARK  127  A    between atoms: _299  and  _302
REMARK  128  A    between atoms: _305  and  _307
REMARK  129  A    between atoms: _307  and  _308
REMARK  130  A    between atoms: _307  and  _310
REMARK  131  A    between atoms: _310  and  _311
REMARK  132  A    between atoms: _316  and  _317
REMARK                            x       y       z     vdW  Elec       q    Type
REMARK                         _______ _______ _______ _____ _____    ______ ____
ROOT
ATOM      1  CA  VAL A   1      34.704  -6.804  26.979  0.00  0.00    +0.133 C 
ENDROOT
BRANCH   1   2
ATOM      2  CB  VAL A   1      34.338  -5.382  27.463  0.00  0.00    +0.023 C 
ATOM      3  CG2 VAL A   1      33.086  -5.431  28.331  0.00  0.00    +0.002 C 
ATOM      4  CG1 VAL A   1      34.116  -4.462  26.267  0.00  0.00    +0.002 C 
ENDBRANCH   1   2
BRANCH   1   5
ATOM      5  N   VAL A   1      33.548  -7.480  26.405  0.00  0.00    -0.239 NA
ATOM      6  H   VAL A   1      32.781  -7.786  27.037  0.00  0.00    +0.142 HD
ENDBRANCH   1   5
BRANCH   1   7
ATOM      7  C   VAL A   1      35.217  -7.627  28.153  0.00  0.00    +0.224 C 
ATOM      8  O   VAL A   1      34.520  -8.518  28.638  0.00  0.00    -0.287 OA
ENDBRANCH   1   7
TORSDOF 3
REMARK  Name = ../refined-set-2016/1f5k/1f5k_pocket.pdb
REMARK  132 active torsions:
REMARK  status: ('A' for Active; 'I' for Inactive)
REMARK    1  A    between atoms: _1  and  _3
REMARK    2  A    between atoms: _3  and  _4
REMARK    3  A    between atoms: _3  and  _6
REMARK    4  A    between atoms: _6  and  _7
REMARK    5  A    between atoms: _10  and  _12
REMARK    6  A    between atoms: _12  and  _13
REMARK    7  A    between atoms: _12  and  _15
REMARK    8  A    between atoms: _15  and  _16
REMARK    9  A    between atoms: _21  and  _23
REMARK   10  A    between atoms: _23  and  _24
REMARK   11  A    between atoms: _23  and  _26
REMARK   12  A    between atoms: _26  and  _27
REMARK   13  A    between atoms: _32  and  _34
REMARK   14  A    between atoms: _34  and  _35
REMARK   15  A    between atoms: _34  and  _37
REMARK   16  A    between atoms: _37  and  _38
REMARK   17  A    between atoms: _41  and  _43
REMARK   18  A    between atoms: _43  and  _44
REMARK   19  A    between atoms: _43  and  _46
REMARK   20  A    between atoms: _46  and  _47
REMARK   21  A    between atoms: _50  and  _52
REMARK   22  A    between atoms: _52  and  _53
REMARK   23  A    between atoms: _52  and  _55
REMARK   24  A    between atoms: _55  and  _56
REMARK   25  A    between atoms: _56  and  _57
REMARK   26  A    between atoms: _57  and  _58
REMARK   27  A    between atoms: _58  and  _59
REMARK   28  A    between atoms: _63  and  _65
REMARK   29  A    between atoms: _65  and  _66
REMARK   30  A    between atoms: _65  and  _68
REMARK   31  A    between atoms: _68  and  _69
REMARK   32  A    between atoms: _71  and  _73
REMARK   33  A    between atoms: _73  and  _74
REMARK   34  A    between atoms: _73  and  _76
REMARK   35  A    between atoms: _79  and  _81
REMARK   36  A    between atoms: _81  and  _82
REMARK   37  A    between atoms: _81  and  _84
REMARK   38  A    between atoms: _84  and  _85
REMARK   39  A    between atoms: _90  and  _91
REMARK   40  A    between atoms: _93  and  _95
REMARK   41  A    between atoms: _95  and  _96
REMARK   42  A    between atoms: _99  and  _101
REMARK   43  A    between atoms: _101  and  _102
REMARK   44  A    between atoms: _105  and  _107
REMARK   45  A    between atoms: _107  and  _108
REMARK   46  A    between atoms: _107  and  _110
REMARK   47  A    between atoms: _110  and  _111
REMARK   48  A    between atoms: _114  and  _116
REMARK   49  A    between atoms: _116  and  _117
REMARK   50  A    between atoms: _116  and  _119
REMARK   51  A    between atoms: _119  and  _120
REMARK   52  A    between atoms: _123  and  _125
REMARK   53  A    between atoms: _125  and  _126
REMARK   54  A    between atoms: _125  and  _128
REMARK   55  A    between atoms: _128  and  _129
REMARK   56  A    between atoms: _131  and  _133
REMARK   57  A    between atoms: _133  and  _134
REMARK   58  A    between atoms: _133  and  _136
REMARK   59  A    between atoms: _136  and  _137
REMARK   60  A    between atoms: _137  and  _256
REMARK   61  A    between atoms: _138  and  _140
REMARK   62  A    between atoms: _140  and  _141
REMARK   63  A    between atoms: _140  and  _143
REMARK   64  A    between atoms: _143  and  _144
REMARK   65  A    between atoms: _144  and  _145
REMARK   66  A    between atoms: _150  and  _152
REMARK   67  A    between atoms: _152  and  _153
REMARK   68  A    between atoms: _155  and  _157
REMARK   69  A    between atoms: _157  and  _158
REMARK   70  A    between atoms: _157  and  _160
REMARK   71  A    between atoms: _160  and  _161
REMARK   72  A    between atoms: _164  and  _166
REMARK   73  A    between atoms: _166  and  _167
REMARK   74  A    between atoms: _166  and  _169
REMARK   75  A    between atoms: _169  and  _170
REMARK   76  A    between atoms: _172  and  _174
REMARK   77  A    between atoms: _174  and  _175
REMARK   78  A    between atoms: _177  and  _179
REMARK   79  A    between atoms: _179  and  _180
REMARK   80  A    between atoms: _182  and  _184
REMARK   81  A    between atoms: _184  and  _185
REMARK   82  A    between atoms: _184  and  _187
REMARK   83  A    between atoms: _187  and  _188
REMARK   84  A    between atoms: _191  and  _193
REMARK   85  A    between atoms: _193  and  _194
REMARK   86  A    between atoms: _193  and  _196
REMARK   87  A    between atoms: _199  and  _201
REMARK   88  A    between atoms: _201  and  _202
REMARK   89  A    between atoms: _201  and  _204
REMARK   90  A    between atoms: _204  and  _205
REMARK   91  A    between atoms: _207  and  _209
REMARK   92  A    between atoms: _209  and  _210
REMARK   93  A    between atoms: _209  and  _212
REMARK   94  A    between atoms: _212  and  _213
REMARK   95  A    between atoms: _223  and  _225
REMARK   96  A    between atoms: _225  and  _226
REMARK   97  A    between atoms: _228  and  _230
REMARK   98  A    between atoms: _230  and  _231
REMARK   99  A    between atoms: _230  and  _233
REMARK  100  A    between atoms: _233  and  _234
REMARK  101  A    between atoms: _234  and  _235
REMARK  102  A    between atoms: _235  and  _236
REMARK  103  A    between atoms: _245  and  _247
REMARK  104  A    between atoms: _247  and  _248
REMARK  105  A    between atoms: _250  and  _252
REMARK  106  A    between atoms: _252  and  _253
REMARK  107  A    between atoms: _252  and  _255
REMARK  108  A    between atoms: _255  and  _256
REMARK  109  A    between atoms: _257  and  _259
REMARK  110  A    between atoms: _259  and  _260
REMARK  111  A    between atoms: _263  and  _265
REMARK  112  A    between atoms: _265  and  _266
REMARK  113  A    between atoms: _265  and  _268
REMARK  114  A    between atoms: _268  and  _269
REMARK  115  A    between atoms: _272  and  _274
REMARK  116  A    between atoms: _274  and  _275
REMARK  117  A    between atoms: _274  and  _277
REMARK  118  A    between atoms: _277  and  _278
REMARK  119  A    between atoms: _278  and  _279
REMARK  120  A    between atoms: _279  and  _280
REMARK  121  A    between atoms: _280  and  _281
REMARK  122  A    between atoms: _286  and  _287
REMARK  123  A    between atoms: _292  and  _294
REMARK  124  A    between atoms: _294  and  _295
REMARK  125  A    between atoms: _297  and  _299
REMARK  126  A    between atoms: _299  and  _300
REMARK  127  A    between atoms: _299  and  _302
REMARK  128  A    between atoms: _305  and  _307
REMARK  129  A    between atoms: _307  and  _308
REMARK  130  A    between atoms: _307  and  _310
REMARK  131  A    between atoms: _310  and  _311
REMARK  132  A    between atoms: _316  and  _317
REMARK                            x       y       z     vdW  Elec       q    Type
REMARK                         _______ _______ _______ _____ _____    ______ ____
ROOT
ATOM      1  CG  TYR A   1      39.906   6.120  34.540  0.00  0.00    -0.020 A 
ATOM      2  CD2 TYR A   1      39.343   4.911  34.132  0.00  0.00    -0.001 A 
ATOM      3  CE2 TYR A   1      38.634   4.815  32.944  0.00  0.00    +0.036 A 
ATOM      4  CZ  TYR A   1      38.481   5.935  32.146  0.00  0.00    +0.134 A 
ATOM      5  CE1 TYR A   1      39.033   7.151  32.529  0.00  0.00    +0.036 A 
ATOM      6  CD1 TYR A   1      39.740   7.237  33.722  0.00  0.00    -0.001 A 
ENDROOT
BRANCH   4   7
ATOM      7  OH  TYR A   1      37.776   5.842  30.970  0.00  0.00    -0.506 OA
ATOM      8  HH  TYR A   1      36.849   5.554  31.164  0.00  0.00    +0.292 HD
ENDBRANCH   4   7
BRANCH   1   9
ATOM      9  CB  TYR A   1      40.685   6.211  35.827  0.00  0.00    +0.051 C 
BRANCH   9  10
ATOM     10  CA  TYR A   1      42.089   6.795  35.653  0.00  0.00    +0.137 C 
BRANCH  10  11
ATOM     11  N   TYR A   1      42.965   5.849  34.967  0.00  0.00    -0.239 NA
ATOM     12  H   TYR A   1      43.240   4.965  35.441  0.00  0.00    +0.142 HD
ENDBRANCH  10  11
BRANCH  10  13
ATOM     13  C   TYR A   1      42.599   7.274  36.997  0.00  0.00    +0.224 C 
ATOM     14  O   TYR A   1      41.983   8.143  37.614  0.00  0.00    -0.287 OA
ENDBRANCH  10  13
ENDBRANCH   9  10
ENDBRANCH   1   9
TORSDOF 5
REMARK  Name = ../refined-set-2016/1f5k/1f5k_pocket.pdb
REMARK  132 active torsions:
REMARK  status: ('A' for Active; 'I' for Inactive)
REMARK    1  A    between atoms: _1  and  _3
REMARK    2  A    between atoms: _3  and  _4
REMARK    3  A    between atoms: _3  and  _6
REMARK    4  A    between atoms: _6  and  _7
REMARK    5  A    between atoms: _10  and  _12
REMARK    6  A    between atoms: _12  and  _13
REMARK    7  A    between atoms: _12  and  _15
REMARK    8  A    between atoms: _15  and  _16
REMARK    9  A    between atoms: _21  and  _23
REMARK   10  A    between atoms: _23  and  _24
REMARK   11  A    between atoms: _23  and  _26
REMARK   12  A    between atoms: _26  and  _27
REMARK   13  A    between atoms: _32  and  _34
REMARK   14  A    between atoms: _34  and  _35
REMARK   15  A    between atoms: _34  and  _37
REMARK   16  A    between atoms: _37  and  _38
REMARK   17  A    between atoms: _41  and  _43
REMARK   18  A    between atoms: _43  and  _44
REMARK   19  A    between atoms: _43  and  _46
REMARK   20  A    between atoms: _46  and  _47
REMARK   21  A    between atoms: _50  and  _52
REMARK   22  A    between atoms: _52  and  _53
REMARK   23  A    between atoms: _52  and  _55
REMARK   24  A    between atoms: _55  and  _56
REMARK   25  A    between atoms: _56  and  _57
REMARK   26  A    between atoms: _57  and  _58
REMARK   27  A    between atoms: _58  and  _59
REMARK   28  A    between atoms: _63  and  _65
REMARK   29  A    between atoms: _65  and  _66
REMARK   30  A    between atoms: _65  and  _68
REMARK   31  A    between atoms: _68  and  _69
REMARK   32  A    between atoms: _71  and  _73
REMARK   33  A    between atoms: _73  and  _74
REMARK   34  A    between atoms: _73  and  _76
REMARK   35  A    between atoms: _79  and  _81
REMARK   36  A    between atoms: _81  and  _82
REMARK   37  A    between atoms: _81  and  _84
REMARK   38  A    between atoms: _84  and  _85
REMARK   39  A    between atoms: _90  and  _91
REMARK   40  A    between atoms: _93  and  _95
REMARK   41  A    between atoms: _95  and  _96
REMARK   42  A    between atoms: _99  and  _101
REMARK   43  A    between atoms: _101  and  _102
REMARK   44  A    between atoms: _105  and  _107
REMARK   45  A    between atoms: _107  and  _108
REMARK   46  A    between atoms: _107  and  _110
REMARK   47  A    between atoms: _110  and  _111
REMARK   48  A    between atoms: _114  and  _116
REMARK   49  A    between atoms: _116  and  _117
REMARK   50  A    between atoms: _116  and  _119
REMARK   51  A    between atoms: _119  and  _120
REMARK   52  A    between atoms: _123  and  _125
REMARK   53  A    between atoms: _125  and  _126
REMARK   54  A    between atoms: _125  and  _128
REMARK   55  A    between atoms: _128  and  _129
REMARK   56  A    between atoms: _131  and  _133
REMARK   57  A    between atoms: _133  and  _134
REMARK   58  A    between atoms: _133  and  _136
REMARK   59  A    between atoms: _136  and  _137
REMARK   60  A    between atoms: _137  and  _256
REMARK   61  A    between atoms: _138  and  _140
REMARK   62  A    between atoms: _140  and  _141
REMARK   63  A    between atoms: _140  and  _143
REMARK   64  A    between atoms: _143  and  _144
REMARK   65  A    between atoms: _144  and  _145
REMARK   66  A    between atoms: _150  and  _152
REMARK   67  A    between atoms: _152  and  _153
REMARK   68  A    between atoms: _155  and  _157
REMARK   69  A    between atoms: _157  and  _158
REMARK   70  A    between atoms: _157  and  _160
REMARK   71  A    between atoms: _160  and  _161
REMARK   72  A    between atoms: _164  and  _166
REMARK   73  A    between atoms: _166  and  _167
REMARK   74  A    between atoms: _166  and  _169
REMARK   75  A    between atoms: _169  and  _170
REMARK   76  A    between atoms: _172  and  _174
REMARK   77  A    between atoms: _174  and  _175
REMARK   78  A    between atoms: _177  and  _179
REMARK   79  A    between atoms: _179  and  _180
REMARK   80  A    between atoms: _182  and  _184
REMARK   81  A    between atoms: _184  and  _185
REMARK   82  A    between atoms: _184  and  _187
REMARK   83  A    between atoms: _187  and  _188
REMARK   84  A    between atoms: _191  and  _193
REMARK   85  A    between atoms: _193  and  _194
REMARK   86  A    between atoms: _193  and  _196
REMARK   87  A    between atoms: _199  and  _201
REMARK   88  A    between atoms: _201  and  _202
REMARK   89  A    between atoms: _201  and  _204
REMARK   90  A    between atoms: _204  and  _205
REMARK   91  A    between atoms: _207  and  _209
REMARK   92  A    between atoms: _209  and  _210
REMARK   93  A    between atoms: _209  and  _212
REMARK   94  A    between atoms: _212  and  _213
REMARK   95  A    between atoms: _223  and  _225
REMARK   96  A    between atoms: _225  and  _226
REMARK   97  A    between atoms: _228  and  _230
REMARK   98  A    between atoms: _230  and  _231
REMARK   99  A    between atoms: _230  and  _233
REMARK  100  A    between atoms: _233  and  _234
REMARK  101  A    between atoms: _234  and  _235
REMARK  102  A    between atoms: _235  and  _236
REMARK  103  A    between atoms: _245  and  _247
REMARK  104  A    between atoms: _247  and  _248
REMARK  105  A    between atoms: _250  and  _252
REMARK  106  A    between atoms: _252  and  _253
REMARK  107  A    between atoms: _252  and  _255
REMARK  108  A    between atoms: _255  and  _256
REMARK  109  A    between atoms: _257  and  _259
REMARK  110  A    between atoms: _259  and  _260
REMARK  111  A    between atoms: _263  and  _265
REMARK  112  A    between atoms: _265  and  _266
REMARK  113  A    between atoms: _265  and  _268
REMARK  114  A    between atoms: _268  and  _269
REMARK  115  A    between atoms: _272  and  _274
REMARK  116  A    between atoms: _274  and  _275
REMARK  117  A    between atoms: _274  and  _277
REMARK  118  A    between atoms: _277  and  _278
REMARK  119  A    between atoms: _278  and  _279
REMARK  120  A    between atoms: _279  and  _280
REMARK  121  A    between atoms: _280  and  _281
REMARK  122  A    between atoms: _286  and  _287
REMARK  123  A    between atoms: _292  and  _294
REMARK  124  A    between atoms: _294  and  _295
REMARK  125  A    between atoms: _297  and  _299
REMARK  126  A    between atoms: _299  and  _300
REMARK  127  A    between atoms: _299  and  _302
REMARK  128  A    between atoms: _305  and  _307
REMARK  129  A    between atoms: _307  and  _308
REMARK  130  A    between atoms: _307  and  _310
REMARK  131  A    between atoms: _310  and  _311
REMARK  132  A    between atoms: _316  and  _317
REMARK                            x       y       z     vdW  Elec       q    Type
REMARK                         _______ _______ _______ _____ _____    ______ ____
ROOT
ATOM      1  C   ALA A   1      36.444  -2.816  30.306  0.00  0.00    +0.238 C 
ATOM      2  O   ALA A   1      35.800  -1.828  29.930  0.00  0.00    -0.274 OA
ATOM      3  N   ALA A   2      37.301  -3.425  29.506  0.00  0.00    -0.298 N 
ATOM      4  H   ALA A   2      37.828  -4.258  29.839  0.00  0.00    +0.150 HD
ENDROOT
BRANCH   1   5
ATOM      5  CA  ALA A   1      36.310  -3.333  31.741  0.00  0.00    +0.145 C 
ATOM      6  CB  ALA A   1      34.883  -3.834  31.962  0.00  0.00    +0.028 C 
BRANCH   5   7
ATOM      7  N   ALA A   1      36.620  -2.196  32.567  0.00  0.00    -0.238 NA
ATOM      8  H   ALA A   1      37.002  -1.322  32.153  0.00  0.00    +0.142 HD
ENDBRANCH   5   7
ENDBRANCH   1   5
BRANCH   3   9
ATOM      9  CA  ALA A   2      37.503  -2.918  28.147  0.00  0.00    +0.137 C 
ATOM     10  CB  ALA A   2      38.470  -1.738  28.152  0.00  0.00    +0.030 C 
BRANCH   9  11
ATOM     11  C   ALA A   2      38.022  -4.041  27.266  0.00  0.00    +0.227 C 
ATOM     12  O   ALA A   2      38.253  -5.167  27.717  0.00  0.00    -0.286 OA
ENDBRANCH   9  11
ENDBRANCH   3   9
TORSDOF 4
REMARK  Name = ../refined-set-2016/1f5k/1f5k_pocket.pdb
REMARK  132 active torsions:
REMARK  status: ('A' for Active; 'I' for Inactive)
REMARK    1  A    between atoms: _1  and  _3
REMARK    2  A    between atoms: _3  and  _4
REMARK    3  A    between atoms: _3  and  _6
REMARK    4  A    between atoms: _6  and  _7
REMARK    5  A    between atoms: _10  and  _12
REMARK    6  A    between atoms: _12  and  _13
REMARK    7  A    between atoms: _12  and  _15
REMARK    8  A    between atoms: _15  and  _16
REMARK    9  A    between atoms: _21  and  _23
REMARK   10  A    between atoms: _23  and  _24
REMARK   11  A    between atoms: _23  and  _26
REMARK   12  A    between atoms: _26  and  _27
REMARK   13  A    between atoms: _32  and  _34
REMARK   14  A    between atoms: _34  and  _35
REMARK   15  A    between atoms: _34  and  _37
REMARK   16  A    between atoms: _37  and  _38
REMARK   17  A    between atoms: _41  and  _43
REMARK   18  A    between atoms: _43  and  _44
REMARK   19  A    between atoms: _43  and  _46
REMARK   20  A    between atoms: _46  and  _47
REMARK   21  A    between atoms: _50  and  _52
REMARK   22  A    between atoms: _52  and  _53
REMARK   23  A    between atoms: _52  and  _55
REMARK   24  A    between atoms: _55  and  _56
REMARK   25  A    between atoms: _56  and  _57
REMARK   26  A    between atoms: _57  and  _58
REMARK   27  A    between atoms: _58  and  _59
REMARK   28  A    between atoms: _63  and  _65
REMARK   29  A    between atoms: _65  and  _66
REMARK   30  A    between atoms: _65  and  _68
REMARK   31  A    between atoms: _68  and  _69
REMARK   32  A    between atoms: _71  and  _73
REMARK   33  A    between atoms: _73  and  _74
REMARK   34  A    between atoms: _73  and  _76
REMARK   35  A    between atoms: _79  and  _81
REMARK   36  A    between atoms: _81  and  _82
REMARK   37  A    between atoms: _81  and  _84
REMARK   38  A    between atoms: _84  and  _85
REMARK   39  A    between atoms: _90  and  _91
REMARK   40  A    between atoms: _93  and  _95
REMARK   41  A    between atoms: _95  and  _96
REMARK   42  A    between atoms: _99  and  _101
REMARK   43  A    between atoms: _101  and  _102
REMARK   44  A    between atoms: _105  and  _107
REMARK   45  A    between atoms: _107  and  _108
REMARK   46  A    between atoms: _107  and  _110
REMARK   47  A    between atoms: _110  and  _111
REMARK   48  A    between atoms: _114  and  _116
REMARK   49  A    between atoms: _116  and  _117
REMARK   50  A    between atoms: _116  and  _119
REMARK   51  A    between atoms: _119  and  _120
REMARK   52  A    between atoms: _123  and  _125
REMARK   53  A    between atoms: _125  and  _126
REMARK   54  A    between atoms: _125  and  _128
REMARK   55  A    between atoms: _128  and  _129
REMARK   56  A    between atoms: _131  and  _133
REMARK   57  A    between atoms: _133  and  _134
REMARK   58  A    between atoms: _133  and  _136
REMARK   59  A    between atoms: _136  and  _137
REMARK   60  A    between atoms: _137  and  _256
REMARK   61  A    between atoms: _138  and  _140
REMARK   62  A    between atoms: _140  and  _141
REMARK   63  A    between atoms: _140  and  _143
REMARK   64  A    between atoms: _143  and  _144
REMARK   65  A    between atoms: _144  and  _145
REMARK   66  A    between atoms: _150  and  _152
REMARK   67  A    between atoms: _152  and  _153
REMARK   68  A    between atoms: _155  and  _157
REMARK   69  A    between atoms: _157  and  _158
REMARK   70  A    between atoms: _157  and  _160
REMARK   71  A    between atoms: _160  and  _161
REMARK   72  A    between atoms: _164  and  _166
REMARK   73  A    between atoms: _166  and  _167
REMARK   74  A    between atoms: _166  and  _169
REMARK   75  A    between atoms: _169  and  _170
REMARK   76  A    between atoms: _172  and  _174
REMARK   77  A    between atoms: _174  and  _175
REMARK   78  A    between atoms: _177  and  _179
REMARK   79  A    between atoms: _179  and  _180
REMARK   80  A    between atoms: _182  and  _184
REMARK   81  A    between atoms: _184  and  _185
REMARK   82  A    between atoms: _184  and  _187
REMARK   83  A    between atoms: _187  and  _188
REMARK   84  A    between atoms: _191  and  _193
REMARK   85  A    between atoms: _193  and  _194
REMARK   86  A    between atoms: _193  and  _196
REMARK   87  A    between atoms: _199  and  _201
REMARK   88  A    between atoms: _201  and  _202
REMARK   89  A    between atoms: _201  and  _204
REMARK   90  A    between atoms: _204  and  _205
REMARK   91  A    between atoms: _207  and  _209
REMARK   92  A    between atoms: _209  and  _210
REMARK   93  A    between atoms: _209  and  _212
REMARK   94  A    between atoms: _212  and  _213
REMARK   95  A    between atoms: _223  and  _225
REMARK   96  A    between atoms: _225  and  _226
REMARK   97  A    between atoms: _228  and  _230
REMARK   98  A    between atoms: _230  and  _231
REMARK   99  A    between atoms: _230  and  _233
REMARK  100  A    between atoms: _233  and  _234
REMARK  101  A    between atoms: _234  and  _235
REMARK  102  A    between atoms: _235  and  _236
REMARK  103  A    between atoms: _245  and  _247
REMARK  104  A    between atoms: _247  and  _248
REMARK  105  A    between atoms: _250  and  _252
REMARK  106  A    between atoms: _252  and  _253
REMARK  107  A    between atoms: _252  and  _255
REMARK  108  A    between atoms: _255  and  _256
REMARK  109  A    between atoms: _257  and  _259
REMARK  110  A    between atoms: _259  and  _260
REMARK  111  A    between atoms: _263  and  _265
REMARK  112  A    between atoms: _265  and  _266
REMARK  113  A    between atoms: _265  and  _268
REMARK  114  A    between atoms: _268  and  _269
REMARK  115  A    between atoms: _272  and  _274
REMARK  116  A    between atoms: _274  and  _275
REMARK  117  A    between atoms: _274  and  _277
REMARK  118  A    between atoms: _277  and  _278
REMARK  119  A    between atoms: _278  and  _279
REMARK  120  A    between atoms: _279  and  _280
REMARK  121  A    between atoms: _280  and  _281
REMARK  122  A    between atoms: _286  and  _287
REMARK  123  A    between atoms: _292  and  _294
REMARK  124  A    between atoms: _294  and  _295
REMARK  125  A    between atoms: _297  and  _299
REMARK  126  A    between atoms: _299  and  _300
REMARK  127  A    between atoms: _299  and  _302
REMARK  128  A    between atoms: _305  and  _307
REMARK  129  A    between atoms: _307  and  _308
REMARK  130  A    between atoms: _307  and  _310
REMARK  131  A    between atoms: _310  and  _311
REMARK  132  A    between atoms: _316  and  _317
REMARK                            x       y       z     vdW  Elec       q    Type
REMARK                         _______ _______ _______ _____ _____    ______ ____
ROOT
ATOM      1  CA  CYS A   8      34.866   5.838  23.569  0.00  0.00    +0.160 C 
ENDROOT
BRANCH   1   2
ATOM      2  N   CYS A   8      35.426   7.152  23.869  0.00  0.00    -0.296 N 
ATOM      3  C   GLY A   7      35.207   7.772  25.024  0.00  0.00    +0.243 C 
ATOM      4  O   GLY A   7      34.520   7.292  25.929  0.00  0.00    -0.273 OA
ATOM      5  H   CYS A   8      36.018   7.620  23.153  0.00  0.00    +0.150 HD
BRANCH   3   6
ATOM      6  CA  GLY A   7      35.866   9.129  25.196  0.00  0.00    +0.176 C 
BRANCH   6   7
ATOM      7  N   GLY A   7      35.984   9.457  26.603  0.00  0.00    -0.295 N 
ATOM      8  C   ARG A   6      36.740   8.717  27.409  0.00  0.00    +0.241 C 
ATOM      9  O   ARG A   6      37.393   7.750  27.020  0.00  0.00    -0.273 OA
ATOM     10  H   GLY A   7      35.473  10.278  26.986  0.00  0.00    +0.150 HD
BRANCH   8  11
ATOM     11  CA  ARG A   6      36.773   9.135  28.874  0.00  0.00    +0.149 C 
BRANCH  11  12
ATOM     12  N   ARG A   6      36.171   8.054  29.646  0.00  0.00    -0.297 N 
ATOM     13  H   ARG A   6      36.787   7.345  30.093  0.00  0.00    +0.150 HD
ATOM     14  C   GLY A   5      34.854   7.953  29.792  0.00  0.00    +0.243 C 
ATOM     15  O   GLY A   5      34.066   8.789  29.352  0.00  0.00    -0.273 OA
BRANCH  14  16
ATOM     16  CA  GLY A   5      34.358   6.770  30.597  0.00  0.00    +0.176 C 
BRANCH  16  17
ATOM     17  N   GLY A   5      33.124   7.080  31.285  0.00  0.00    -0.295 N 
ATOM     18  C   TRP A   4      32.430   6.127  31.900  0.00  0.00    +0.241 C 
ATOM     19  O   TRP A   4      32.769   4.949  31.909  0.00  0.00    -0.273 OA
ATOM     20  H   GLY A   5      32.775   8.060  31.299  0.00  0.00    +0.150 HD
BRANCH  18  21
ATOM     21  CA  TRP A   4      31.158   6.591  32.591  0.00  0.00    +0.153 C 
BRANCH  21  22
ATOM     22  N   TRP A   4      30.349   5.537  33.213  0.00  0.00    -0.297 N 
ATOM     23  H   TRP A   4      30.792   4.640  33.498  0.00  0.00    +0.150 HD
ATOM     24  C   SER A   3      29.047   5.729  33.413  0.00  0.00    +0.243 C 
ATOM     25  O   SER A   3      28.478   6.773  33.087  0.00  0.00    -0.273 OA
BRANCH  24  26
ATOM     26  CA  SER A   3      28.256   4.605  34.087  0.00  0.00    +0.178 C 
BRANCH  26  27
ATOM     27  N   SER A   3      28.225   3.321  33.383  0.00  0.00    -0.295 N 
ATOM     28  H   SER A   3      29.117   2.815  33.210  0.00  0.00    +0.150 HD
ATOM     29  C   VAL A   2      27.082   2.786  32.960  0.00  0.00    +0.241 C 
ATOM     30  O   VAL A   2      26.000   3.352  33.080  0.00  0.00    -0.273 OA
BRANCH  29  31
ATOM     31  CA  VAL A   2      27.173   1.410  32.288  0.00  0.00    +0.148 C 
BRANCH  31  32
ATOM     32  N   VAL A   2      26.385   0.445  33.061  0.00  0.00    -0.297 N 
ATOM     33  C   ILE A   1      26.631   0.225  34.350  0.00  0.00    +0.238 C 
ATOM     34  O   ILE A   1      27.517   0.814  34.971  0.00  0.00    -0.274 OA
ATOM     35  H   VAL A   2      25.618  -0.078  32.592  0.00  0.00    +0.150 HD
BRANCH  33  36
ATOM     36  CA  ILE A   1      25.748  -0.800  35.059  0.00  0.00    +0.145 C 
BRANCH  36  37
ATOM     37  CB  ILE A   1      24.830  -0.066  36.076  0.00  0.00    +0.025 C 
ATOM     38  CG2 ILE A   1      23.887   0.912  35.357  0.00  0.00    +0.002 C 
BRANCH  37  39
ATOM     39  CG1 ILE A   1      24.031  -1.083  36.892  0.00  0.00    +0.002 C 
ATOM     40  CD1 ILE A   1      23.166  -0.459  37.960  0.00  0.00    +0.000 C 
ENDBRANCH  37  39
ENDBRANCH  36  37
BRANCH  36  41
ATOM     41  N   ILE A   1      26.656  -1.706  35.747  0.00  0.00    -0.238 NA
ATOM     42  H   ILE A   1      27.345  -1.302  36.413  0.00  0.00    +0.142 HD
ENDBRANCH  36  41
ENDBRANCH  33  36
ENDBRANCH  31  32
BRANCH  31  43
ATOM     43  CB  VAL A   2      26.676   1.493  30.836  0.00  0.00    +0.027 C 
ATOM     44  CG2 VAL A   2      26.686   0.110  30.199  0.00  0.00    +0.002 C 
ATOM     45  CG1 VAL A   2      27.553   2.454  30.032  0.00  0.00    +0.002 C 
ENDBRANCH  31  43
ENDBRANCH  29  31
ENDBRANCH  26  27
BRANCH  26  46
ATOM     46  CB  SER A   3      28.759   4.391  35.522  0.00  0.00    +0.166 C 
BRANCH  46  47
ATOM     47  OG  SER A   3      28.702   5.589  36.281  0.00  0.00    -0.380 OA
ATOM     48  H   SER A   3      27.766   5.908  36.322  0.00  0.00    +0.211 HD
ENDBRANCH  46  47
ENDBRANCH  26  46
ENDBRANCH  24  26
ENDBRANCH  21  22
BRANCH  21  49
ATOM     49  CB  TRP A   4      31.509   7.679  33.621  0.00  0.00    +0.057 C 
BRANCH  49  50
ATOM     50  CG  TRP A   4      32.307   7.189  34.799  0.00  0.00    -0.002 A 
ATOM     51  CD1 TRP A   4      31.819   6.591  35.922  0.00  0.00    +0.068 A 
ATOM     52  NE1 TRP A   4      32.835   6.330  36.802  0.00  0.00    -0.352 N 
ATOM     53  HE1 TRP A   4      32.726   5.880  37.733  0.00  0.00    +0.166 HD
ATOM     54  CE2 TRP A   4      34.018   6.756  36.259  0.00  0.00    +0.056 A 
ATOM     55  CZ2 TRP A   4      35.321   6.707  36.776  0.00  0.00    +0.017 A 
ATOM     56  CH2 TRP A   4      36.332   7.214  35.998  0.00  0.00    +0.001 A 
ATOM     57  CZ3 TRP A   4      36.073   7.764  34.727  0.00  0.00    +0.000 A 
ATOM     58  CE3 TRP A   4      34.773   7.813  34.214  0.00  0.00    +0.001 A 
ATOM     59  CD2 TRP A   4      33.725   7.302  34.990  0.00  0.00    +0.013 A 
ENDBRANCH  49  50
ENDBRANCH  21  49
ENDBRANCH  18  21
ENDBRANCH  16  17
ENDBRANCH  14  16
ENDBRANCH  11  12
BRANCH  11  60
ATOM     60  CB  ARG A   6      38.219   9.368  29.328  0.00  0.00    +0.033 C 
BRANCH  60  61
ATOM     61  CG  ARG A   6      39.029  10.239  28.379  0.00  0.00    +0.045 C 
BRANCH  61  62
ATOM     62  CD  ARG A   6      38.511  11.665  28.324  0.00  0.00    +0.174 C 
BRANCH  62  63
ATOM     63  NE  ARG A   6      38.819  12.308  27.047  0.00  0.00    -0.265 N 
ATOM     64  HE  ARG A   6      38.029  12.734  26.522  0.00  0.00    +0.259 HD
ATOM     65  CZ  ARG A   6      40.033  12.391  26.504  0.00  0.00    +0.342 C 
ATOM     66  NH2 ARG A   6      41.089  11.874  27.119  0.00  0.00    -0.292 N 
ATOM     67 HH21 ARG A   6      40.975  11.397  28.036  0.00  0.00    +0.255 HD
ATOM     68 HH22 ARG A   6      42.031  11.946  26.684  0.00  0.00    +0.255 HD
ATOM     69  NH1 ARG A   6      40.188  12.985  25.328  0.00  0.00    -0.292 N 
ATOM     70 HH11 ARG A   6      41.133  13.052  24.900  0.00  0.00    +0.255 HD
ATOM     71 HH12 ARG A   6      39.364  13.383  24.834  0.00  0.00    +0.255 HD
ENDBRANCH  62  63
ENDBRANCH  61  62
ENDBRANCH  60  61
ENDBRANCH  11  60
ENDBRANCH   8  11
ENDBRANCH   6   7
ENDBRANCH   3   6
ENDBRANCH   1   2
BRANCH   1  72
ATOM     72  C   CYS A   8      35.898   5.002  22.832  0.00  0.00    +0.242 C 
ATOM     73  N   ALA A   9      36.199   3.833  23.390  0.00  0.00    -0.297 N 
ATOM     74  H   ALA A   9      35.708   3.559  24.265  0.00  0.00    +0.150 HD
ATOM     75  O   CYS A   8      36.419   5.416  21.796  0.00  0.00    -0.273 OA
BRANCH  73  76
ATOM     76  CA  ALA A   9      37.189   2.915  22.829  0.00  0.00    +0.149 C 
ATOM     77  CB  ALA A   9      36.731   2.390  21.466  0.00  0.00    +0.031 C 
BRANCH  76  78
ATOM     78  C   ALA A   9      38.576   3.563  22.725  0.00  0.00    +0.241 C 
ATOM     79  N   LEU A  10      38.890   4.446  23.671  0.00  0.00    -0.298 N 
ATOM     80  H   LEU A  10      38.192   4.673  24.408  0.00  0.00    +0.150 HD
ATOM     81  O   ALA A   9      39.331   3.293  21.791  0.00  0.00    -0.273 OA
BRANCH  79  82
ATOM     82  CA  LEU A  10      40.196   5.102  23.695  0.00  0.00    +0.137 C 
BRANCH  82  83
ATOM     83  C   LEU A  10      41.193   4.238  24.463  0.00  0.00    +0.227 C 
ATOM     84  O   LEU A  10      40.851   3.644  25.485  0.00  0.00    -0.286 OA
ENDBRANCH  82  83
BRANCH  82  85
ATOM     85  CB  LEU A  10      40.113   6.483  24.348  0.00  0.00    +0.028 C 
BRANCH  85  86
ATOM     86  CG  LEU A  10      39.467   7.630  23.574  0.00  0.00    +0.002 C 
ATOM     87  CD2 LEU A  10      39.781   8.938  24.291  0.00  0.00    +0.000 C 
ATOM     88  CD1 LEU A  10      39.999   7.673  22.147  0.00  0.00    +0.000 C 
ENDBRANCH  85  86
ENDBRANCH  82  85
ENDBRANCH  79  82
ENDBRANCH  76  78
ENDBRANCH  73  76
ENDBRANCH   1  72
BRANCH   1  89
ATOM     89  CB  CYS A   8      33.596   5.980  22.733  0.00  0.00    +0.098 C 
BRANCH  89  90
ATOM     90  SG  CYS A   8      32.289   6.879  23.623  0.00  0.00    -0.080 S 
BRANCH  90  91
ATOM     91  SG  TRP A   4      30.654   6.690  22.437  0.00  0.00    -0.080 S 
BRANCH  91  92
ATOM     92  CB  TRP A   4      29.915   5.097  22.926  0.00  0.00    +0.098 C 
BRANCH  92  93
ATOM     93  CA  TRP A   4      29.657   4.938  24.424  0.00  0.00    +0.160 C 
BRANCH  93  96
ATOM     94  C   SER A   3      30.523   2.749  24.983  0.00  0.00    +0.243 C 
ATOM     95  O   SER A   3      31.683   3.167  24.914  0.00  0.00    -0.273 OA
ATOM     96  N   TRP A   4      29.476   3.528  24.741  0.00  0.00    -0.296 N 
ATOM     97  H   TRP A   4      28.517   3.128  24.778  0.00  0.00    +0.150 HD
BRANCH  94  98
ATOM     98  CA  SER A   3      30.249   1.270  25.293  0.00  0.00    +0.178 C 
BRANCH  98 100
ATOM     99  C   VAL A   2      32.066   0.257  24.073  0.00  0.00    +0.241 C 
ATOM    100  N   SER A   3      31.558   0.644  25.237  0.00  0.00    -0.295 N 
ATOM    101  H   SER A   3      32.100   0.498  26.113  0.00  0.00    +0.150 HD
ATOM    102  O   VAL A   2      31.416   0.269  23.024  0.00  0.00    -0.273 OA
BRANCH  99 103
ATOM    103  CA  VAL A   2      33.482  -0.309  24.108  0.00  0.00    +0.160 C 
BRANCH 103 106
ATOM    104  C   ILE A   1      34.923  -1.545  22.602  0.00  0.00    +0.241 C 
ATOM    105  O   ILE A   1      35.759  -1.708  23.493  0.00  0.00    -0.274 OA
ATOM    106  N   VAL A   2      33.774  -0.910  22.809  0.00  0.00    -0.297 N 
ATOM    107  H   VAL A   2      33.077  -0.840  22.040  0.00  0.00    +0.150 HD
BRANCH 104 108
ATOM    108  CA  ILE A   1      35.166  -2.081  21.190  0.00  0.00    +0.172 C 
BRANCH 108 109
ATOM    109  N   ILE A   1      36.589  -2.093  20.883  0.00  0.00    -0.236 NA
ATOM    110  H   ILE A   1      37.251  -2.538  21.551  0.00  0.00    +0.142 HD
ENDBRANCH 108 109
BRANCH 108 111
ATOM    111  CB  ILE A   1      34.557  -3.496  20.992  0.00  0.00    +0.135 C 
ATOM    112  CG2 ILE A   1      35.063  -4.469  22.048  0.00  0.00    +0.034 C 
BRANCH 111 113
ATOM    113  OG1 ILE A   1      33.133  -3.419  21.048  0.00  0.00    -0.383 OA
ATOM    114  HG1 ILE A   1      32.750  -4.323  20.921  0.00  0.00    +0.210 HD
ENDBRANCH 111 113
ENDBRANCH 108 111
ENDBRANCH 104 108
ENDBRANCH 103 106
BRANCH 103 115
ATOM    115  CB  VAL A   2      34.500   0.832  24.321  0.00  0.00    +0.143 C 
BRANCH 115 116
ATOM    116  CG  VAL A   2      34.452   1.454  25.706  0.00  0.00    +0.367 C 
ATOM    117  OD2 VAL A   2      33.962   0.822  26.663  0.00  0.00    -0.246 OA
ATOM    118  OD1 VAL A   2      34.950   2.594  25.833  0.00  0.00    -0.246 OA
ENDBRANCH 115 116
ENDBRANCH 103 115
ENDBRANCH  99 103
ENDBRANCH  98 100
BRANCH  98 119
ATOM    119  CB  SER A   3      29.607   1.078  26.672  0.00  0.00    +0.166 C 
BRANCH 119 120
ATOM    120  OG  SER A   3      30.489   1.428  27.721  0.00  0.00    -0.380 OA
ATOM    121  H   SER A   3      30.037   1.290  28.591  0.00  0.00    +0.211 HD
ENDBRANCH 119 120
ENDBRANCH  98 119
ENDBRANCH  94  98
ENDBRANCH  93  96
BRANCH  93 122
ATOM    122  C   TRP A   4      28.423   5.725  24.848  0.00  0.00    +0.242 C 
ATOM    123  O   TRP A   4      27.545   5.174  25.514  0.00  0.00    -0.273 OA
ATOM    124  N   GLY A   5      28.355   6.996  24.455  0.00  0.00    -0.297 N 
ATOM    125  H   GLY A   5      29.132   7.391  23.887  0.00  0.00    +0.150 HD
BRANCH 124 126
ATOM    126  CA  GLY A   5      27.216   7.855  24.800  0.00  0.00    +0.149 C 
BRANCH 126 127
ATOM    127  C   GLY A   5      25.917   7.206  24.348  0.00  0.00    +0.241 C 
ATOM    128  N   ARG A   6      24.944   7.136  25.253  0.00  0.00    -0.295 N 
ATOM    129  H   ARG A   6      25.094   7.531  26.203  0.00  0.00    +0.150 HD
ATOM    130  O   GLY A   5      25.802   6.773  23.199  0.00  0.00    -0.273 OA
BRANCH 128 131
ATOM    131  CA  ARG A   6      23.670   6.510  24.923  0.00  0.00    +0.176 C 
BRANCH 131 132
ATOM    132  C   ARG A   6      23.544   5.106  25.505  0.00  0.00    +0.243 C 
ATOM    133  N   GLY A   7      24.678   4.511  25.865  0.00  0.00    -0.296 N 
ATOM    134  H   GLY A   7      25.577   5.014  25.719  0.00  0.00    +0.150 HD
ATOM    135  O   ARG A   6      22.443   4.568  25.619  0.00  0.00    -0.273 OA
BRANCH 133 136
ATOM    136  CA  GLY A   7      24.706   3.176  26.458  0.00  0.00    +0.160 C 
BRANCH 136 137
ATOM    137  C   GLY A   7      24.529   3.201  27.973  0.00  0.00    +0.241 C 
ATOM    138  O   GLY A   7      24.239   2.172  28.585  0.00  0.00    -0.273 OA
ATOM    139  N   CYS A   8      24.701   4.375  28.576  0.00  0.00    -0.295 N 
ATOM    140  H   CYS A   8      24.944   5.207  28.001  0.00  0.00    +0.150 HD
BRANCH 139 141
ATOM    141  CA  CYS A   8      24.559   4.530  30.021  0.00  0.00    +0.178 C 
BRANCH 141 142
ATOM    142  C   CYS A   8      23.301   3.884  30.608  0.00  0.00    +0.243 C 
ATOM    143  N   ALA A   9      23.454   3.263  31.773  0.00  0.00    -0.295 N 
ATOM    144  H   ALA A   9      24.392   3.236  32.221  0.00  0.00    +0.150 HD
ATOM    145  O   CYS A   8      22.227   3.922  30.007  0.00  0.00    -0.273 OA
BRANCH 143 146
ATOM    146  CA  ALA A   9      22.326   2.621  32.428  0.00  0.00    +0.176 C 
BRANCH 146 147
ATOM    147  C   ALA A   9      22.133   1.188  31.978  0.00  0.00    +0.243 C 
ATOM    148  O   ALA A   9      21.453   0.405  32.646  0.00  0.00    -0.273 OA
ATOM    149  N   LEU A  10      22.770   0.845  30.858  0.00  0.00    -0.296 N 
ATOM    150  H   LEU A  10      23.348   1.557  30.368  0.00  0.00    +0.150 HD
BRANCH 149 151
ATOM    151  CA  LEU A  10      22.680  -0.491  30.304  0.00  0.00    +0.163 C 
BRANCH 151 152
ATOM    152  C   LEU A  10      23.396  -1.527  31.151  0.00  0.00    +0.229 C 
ATOM    153  O   LEU A  10      24.189  -1.181  32.032  0.00  0.00    -0.286 OA
ENDBRANCH 151 152
ENDBRANCH 149 151
ENDBRANCH 146 147
ENDBRANCH 143 146
ENDBRANCH 141 142
BRANCH 141 154
ATOM    154  CB  CYS A   8      24.618   6.012  30.391  0.00  0.00    +0.166 C 
BRANCH 154 155
ATOM    155  O   CYS A   8      25.930   6.506  30.204  0.00  0.00    -0.380 OA
ATOM    156  H   CYS A   8      25.958   7.466  30.446  0.00  0.00    +0.211 HD
ENDBRANCH 154 155
ENDBRANCH 141 154
ENDBRANCH 139 141
ENDBRANCH 136 137
BRANCH 136 157
ATOM    157  CB  GLY A   7      26.019   2.473  26.114  0.00  0.00    +0.143 C 
BRANCH 157 158
ATOM    158  CG  GLY A   7      26.078   2.026  24.672  0.00  0.00    +0.367 C 
ATOM    159  OD2 GLY A   7      25.060   1.514  24.172  0.00  0.00    -0.246 OA
ATOM    160  OD1 GLY A   7      27.141   2.179  24.044  0.00  0.00    -0.246 OA
ENDBRANCH 157 158
ENDBRANCH 136 157
ENDBRANCH 133 136
ENDBRANCH 131 132
ENDBRANCH 128 131
ENDBRANCH 126 127
BRANCH 126 161
ATOM    161  CB  GLY A   5      27.358   9.240  24.155  0.00  0.00    +0.039 C 
BRANCH 161 162
ATOM    162  CG  GLY A   5      26.202  10.189  24.467  0.00  0.00    +0.087 C 
BRANCH 162 163
ATOM    163  CD  GLY A   5      26.349  11.552  23.808  0.00  0.00    +0.219 C 
ATOM    164  OE1 GLY A   5      27.461  12.049  23.613  0.00  0.00    -0.275 OA
ATOM    165  NE2 GLY A   5      25.219  12.169  23.473  0.00  0.00    -0.329 N 
ATOM    166 HE21 GLY A   5      24.303  11.712  23.656  0.00  0.00    +0.145 HD
ATOM    167 HE22 GLY A   5      25.252  13.108  23.028  0.00  0.00    +0.145 HD
ENDBRANCH 162 163
ENDBRANCH 161 162
ENDBRANCH 126 161
ENDBRANCH 124 126
ENDBRANCH  93 122
ENDBRANCH  92  93
ENDBRANCH  91  92
ENDBRANCH  90  91
ENDBRANCH  89  90
ENDBRANCH   1  89
TORSDOF 71
REMARK  Name = ../refined-set-2016/1f5k/1f5k_pocket.pdb
REMARK  132 active torsions:
REMARK  status: ('A' for Active; 'I' for Inactive)
REMARK    1  A    between atoms: _1  and  _3
REMARK    2  A    between atoms: _3  and  _4
REMARK    3  A    between atoms: _3  and  _6
REMARK    4  A    between atoms: _6  and  _7
REMARK    5  A    between atoms: _10  and  _12
REMARK    6  A    between atoms: _12  and  _13
REMARK    7  A    between atoms: _12  and  _15
REMARK    8  A    between atoms: _15  and  _16
REMARK    9  A    between atoms: _21  and  _23
REMARK   10  A    between atoms: _23  and  _24
REMARK   11  A    between atoms: _23  and  _26
REMARK   12  A    between atoms: _26  and  _27
REMARK   13  A    between atoms: _32  and  _34
REMARK   14  A    between atoms: _34  and  _35
REMARK   15  A    between atoms: _34  and  _37
REMARK   16  A    between atoms: _37  and  _38
REMARK   17  A    between atoms: _41  and  _43
REMARK   18  A    between atoms: _43  and  _44
REMARK   19  A    between atoms: _43  and  _46
REMARK   20  A    between atoms: _46  and  _47
REMARK   21  A    between atoms: _50  and  _52
REMARK   22  A    between atoms: _52  and  _53
REMARK   23  A    between atoms: _52  and  _55
REMARK   24  A    between atoms: _55  and  _56
REMARK   25  A    between atoms: _56  and  _57
REMARK   26  A    between atoms: _57  and  _58
REMARK   27  A    between atoms: _58  and  _59
REMARK   28  A    between atoms: _63  and  _65
REMARK   29  A    between atoms: _65  and  _66
REMARK   30  A    between atoms: _65  and  _68
REMARK   31  A    between atoms: _68  and  _69
REMARK   32  A    between atoms: _71  and  _73
REMARK   33  A    between atoms: _73  and  _74
REMARK   34  A    between atoms: _73  and  _76
REMARK   35  A    between atoms: _79  and  _81
REMARK   36  A    between atoms: _81  and  _82
REMARK   37  A    between atoms: _81  and  _84
REMARK   38  A    between atoms: _84  and  _85
REMARK   39  A    between atoms: _90  and  _91
REMARK   40  A    between atoms: _93  and  _95
REMARK   41  A    between atoms: _95  and  _96
REMARK   42  A    between atoms: _99  and  _101
REMARK   43  A    between atoms: _101  and  _102
REMARK   44  A    between atoms: _105  and  _107
REMARK   45  A    between atoms: _107  and  _108
REMARK   46  A    between atoms: _107  and  _110
REMARK   47  A    between atoms: _110  and  _111
REMARK   48  A    between atoms: _114  and  _116
REMARK   49  A    between atoms: _116  and  _117
REMARK   50  A    between atoms: _116  and  _119
REMARK   51  A    between atoms: _119  and  _120
REMARK   52  A    between atoms: _123  and  _125
REMARK   53  A    between atoms: _125  and  _126
REMARK   54  A    between atoms: _125  and  _128
REMARK   55  A    between atoms: _128  and  _129
REMARK   56  A    between atoms: _131  and  _133
REMARK   57  A    between atoms: _133  and  _134
REMARK   58  A    between atoms: _133  and  _136
REMARK   59  A    between atoms: _136  and  _137
REMARK   60  A    between atoms: _137  and  _256
REMARK   61  A    between atoms: _138  and  _140
REMARK   62  A    between atoms: _140  and  _141
REMARK   63  A    between atoms: _140  and  _143
REMARK   64  A    between atoms: _143  and  _144
REMARK   65  A    between atoms: _144  and  _145
REMARK   66  A    between atoms: _150  and  _152
REMARK   67  A    between atoms: _152  and  _153
REMARK   68  A    between atoms: _155  and  _157
REMARK   69  A    between atoms: _157  and  _158
REMARK   70  A    between atoms: _157  and  _160
REMARK   71  A    between atoms: _160  and  _161
REMARK   72  A    between atoms: _164  and  _166
REMARK   73  A    between atoms: _166  and  _167
REMARK   74  A    between atoms: _166  and  _169
REMARK   75  A    between atoms: _169  and  _170
REMARK   76  A    between atoms: _172  and  _174
REMARK   77  A    between atoms: _174  and  _175
REMARK   78  A    between atoms: _177  and  _179
REMARK   79  A    between atoms: _179  and  _180
REMARK   80  A    between atoms: _182  and  _184
REMARK   81  A    between atoms: _184  and  _185
REMARK   82  A    between atoms: _184  and  _187
REMARK   83  A    between atoms: _187  and  _188
REMARK   84  A    between atoms: _191  and  _193
REMARK   85  A    between atoms: _193  and  _194
REMARK   86  A    between atoms: _193  and  _196
REMARK   87  A    between atoms: _199  and  _201
REMARK   88  A    between atoms: _201  and  _202
REMARK   89  A    between atoms: _201  and  _204
REMARK   90  A    between atoms: _204  and  _205
REMARK   91  A    between atoms: _207  and  _209
REMARK   92  A    between atoms: _209  and  _210
REMARK   93  A    between atoms: _209  and  _212
REMARK   94  A    between atoms: _212  and  _213
REMARK   95  A    between atoms: _223  and  _225
REMARK   96  A    between atoms: _225  and  _226
REMARK   97  A    between atoms: _228  and  _230
REMARK   98  A    between atoms: _230  and  _231
REMARK   99  A    between atoms: _230  and  _233
REMARK  100  A    between atoms: _233  and  _234
REMARK  101  A    between atoms: _234  and  _235
REMARK  102  A    between atoms: _235  and  _236
REMARK  103  A    between atoms: _245  and  _247
REMARK  104  A    between atoms: _247  and  _248
REMARK  105  A    between atoms: _250  and  _252
REMARK  106  A    between atoms: _252  and  _253
REMARK  107  A    between atoms: _252  and  _255
REMARK  108  A    between atoms: _255  and  _256
REMARK  109  A    between atoms: _257  and  _259
REMARK  110  A    between atoms: _259  and  _260
REMARK  111  A    between atoms: _263  and  _265
REMARK  112  A    between atoms: _265  and  _266
REMARK  113  A    between atoms: _265  and  _268
REMARK  114  A    between atoms: _268  and  _269
REMARK  115  A    between atoms: _272  and  _274
REMARK  116  A    between atoms: _274  and  _275
REMARK  117  A    between atoms: _274  and  _277
REMARK  118  A    between atoms: _277  and  _278
REMARK  119  A    between atoms: _278  and  _279
REMARK  120  A    between atoms: _279  and  _280
REMARK  121  A    between atoms: _280  and  _281
REMARK  122  A    between atoms: _286  and  _287
REMARK  123  A    between atoms: _292  and  _294
REMARK  124  A    between atoms: _294  and  _295
REMARK  125  A    between atoms: _297  and  _299
REMARK  126  A    between atoms: _299  and  _300
REMARK  127  A    between atoms: _299  and  _302
REMARK  128  A    between atoms: _305  and  _307
REMARK  129  A    between atoms: _307  and  _308
REMARK  130  A    between atoms: _307  and  _310
REMARK  131  A    between atoms: _310  and  _311
REMARK  132  A    between atoms: _316  and  _317
REMARK                            x       y       z     vdW  Elec       q    Type
REMARK                         _______ _______ _______ _____ _____    ______ ____
ROOT
ATOM      1  C   GLY A   3      34.466   1.575  31.901  0.00  0.00    +0.243 C 
ATOM      2  N   VAL A   4      33.780   2.448  32.631  0.00  0.00    -0.297 N 
ATOM      3  H   VAL A   4      33.336   3.266  32.168  0.00  0.00    +0.150 HD
ATOM      4  O   GLY A   3      35.127   0.655  32.396  0.00  0.00    -0.273 OA
ENDROOT
BRANCH   2   5
ATOM      5  CA  VAL A   4      33.641   2.275  34.074  0.00  0.00    +0.149 C 
BRANCH   5   6
ATOM      6  C   VAL A   4      32.181   1.961  34.385  0.00  0.00    +0.241 C 
ATOM      7  N   TYR A   5      31.970   0.940  35.208  0.00  0.00    -0.298 N 
ATOM      8  H   TYR A   5      32.789   0.444  35.614  0.00  0.00    +0.150 HD
ATOM      9  O   VAL A   4      31.271   2.622  33.881  0.00  0.00    -0.273 OA
BRANCH   7  10
ATOM     10  CA  TYR A   5      30.627   0.492  35.561  0.00  0.00    +0.141 C 
BRANCH  10  11
ATOM     11  C   TYR A   5      30.374   0.502  37.056  0.00  0.00    +0.227 C 
ATOM     12  O   TYR A   5      31.287   0.319  37.850  0.00  0.00    -0.286 OA
ENDBRANCH  10  11
BRANCH  10  13
ATOM     13  CB  TYR A   5      30.389  -0.933  35.033  0.00  0.00    +0.054 C 
BRANCH  13  14
ATOM     14  CG  TYR A   5      30.638  -1.080  33.547  0.00  0.00    -0.020 A 
ATOM     15  CD2 TYR A   5      31.935  -1.043  33.032  0.00  0.00    -0.001 A 
ATOM     16  CE2 TYR A   5      32.166  -1.095  31.664  0.00  0.00    +0.036 A 
ATOM     17  CZ  TYR A   5      31.089  -1.186  30.793  0.00  0.00    +0.134 A 
ATOM     18  CE1 TYR A   5      29.795  -1.239  31.277  0.00  0.00    +0.036 A 
ATOM     19  CD1 TYR A   5      29.576  -1.187  32.651  0.00  0.00    -0.001 A 
BRANCH  17  20
ATOM     20  OH  TYR A   5      31.305  -1.174  29.436  0.00  0.00    -0.506 OA
ATOM     21  HH  TYR A   5      32.278  -1.135  29.258  0.00  0.00    +0.292 HD
ENDBRANCH  17  20
ENDBRANCH  13  14
ENDBRANCH  10  13
ENDBRANCH   7  10
ENDBRANCH   5   6
BRANCH   5  22
ATOM     22  CB  VAL A   4      34.079   3.522  34.850  0.00  0.00    +0.027 C 
ATOM     23  CG2 VAL A   4      34.059   3.231  36.339  0.00  0.00    +0.002 C 
ATOM     24  CG1 VAL A   4      35.470   3.961  34.401  0.00  0.00    +0.002 C 
ENDBRANCH   5  22
ENDBRANCH   2   5
BRANCH   1  25
ATOM     25  CA  GLY A   3      34.531   1.824  30.409  0.00  0.00    +0.176 C 
BRANCH  25  28
ATOM     26  C   PRO A   2      36.903   2.180  30.361  0.00  0.00    +0.241 C 
ATOM     27  O   PRO A   2      36.794   3.271  30.931  0.00  0.00    -0.273 OA
ATOM     28  N   GLY A   3      35.866   1.416  30.045  0.00  0.00    -0.295 N 
ATOM     29  H   GLY A   3      36.015   0.522  29.535  0.00  0.00    +0.150 HD
BRANCH  26  35
ATOM     30  C   LYS A   1      39.381   3.567  28.960  0.00  0.00    +0.241 C 
ATOM     31  N   PRO A   2      39.323   2.620  29.912  0.00  0.00    -0.272 N 
ATOM     32  CD  PRO A   2      40.320   2.406  30.974  0.00  0.00    +0.094 C 
ATOM     33  CG  PRO A   2      40.223   0.930  31.192  0.00  0.00    +0.024 C 
ATOM     34  CB  PRO A   2      38.742   0.693  31.126  0.00  0.00    +0.031 C 
ATOM     35  CA  PRO A   2      38.262   1.613  29.994  0.00  0.00    +0.152 C 
ATOM     36  O   LYS A   1      38.536   3.648  28.068  0.00  0.00    -0.273 OA
BRANCH  30  37
ATOM     37  CA  LYS A   1      40.563   4.537  29.020  0.00  0.00    +0.145 C 
BRANCH  37  38
ATOM     38  N   LYS A   1      41.724   3.858  28.452  0.00  0.00    -0.238 NA
ATOM     39  H   LYS A   1      41.630   3.393  27.526  0.00  0.00    +0.142 HD
ENDBRANCH  37  38
BRANCH  37  40
ATOM     40  CB  LYS A   1      40.247   5.820  28.232  0.00  0.00    +0.026 C 
BRANCH  40  41
ATOM     41  CG  LYS A   1      41.403   6.803  28.146  0.00  0.00    -0.000 C 
BRANCH  41  42
ATOM     42  CD  LYS A   1      41.843   7.265  29.521  0.00  0.00    -0.024 C 
BRANCH  42  43
ATOM     43  CE  LYS A   1      43.101   8.116  29.431  0.00  0.00    -0.086 C 
BRANCH  43  44
ATOM     44  NZ  LYS A   1      43.631   8.452  30.776  0.00  0.00    +0.380 N 
ATOM     45  HZ1 LYS A   1      42.912   8.983  31.308  0.00  0.00    -0.089 HD
ATOM     46  HZ2 LYS A   1      43.863   7.575  31.285  0.00  0.00    -0.089 HD
ATOM     47  HZ3 LYS A   1      44.488   9.032  30.675  0.00  0.00    -0.089 HD
ENDBRANCH  43  44
ENDBRANCH  42  43
ENDBRANCH  41  42
ENDBRANCH  40  41
ENDBRANCH  37  40
ENDBRANCH  30  37
ENDBRANCH  26  35
ENDBRANCH  25  28
ENDBRANCH   1  25
TORSDOF 18
REMARK  Name = ../refined-set-2016/1f5k/1f5k_pocket.pdb
REMARK  132 active torsions:
REMARK  status: ('A' for Active; 'I' for Inactive)
REMARK    1  A    between atoms: _1  and  _3
REMARK    2  A    between atoms: _3  and  _4
REMARK    3  A    between atoms: _3  and  _6
REMARK    4  A    between atoms: _6  and  _7
REMARK    5  A    between atoms: _10  and  _12
REMARK    6  A    between atoms: _12  and  _13
REMARK    7  A    between atoms: _12  and  _15
REMARK    8  A    between atoms: _15  and  _16
REMARK    9  A    between atoms: _21  and  _23
REMARK   10  A    between atoms: _23  and  _24
REMARK   11  A    between atoms: _23  and  _26
REMARK   12  A    between atoms: _26  and  _27
REMARK   13  A    between atoms: _32  and  _34
REMARK   14  A    between atoms: _34  and  _35
REMARK   15  A    between atoms: _34  and  _37
REMARK   16  A    between atoms: _37  and  _38
REMARK   17  A    between atoms: _41  and  _43
REMARK   18  A    between atoms: _43  and  _44
REMARK   19  A    between atoms: _43  and  _46
REMARK   20  A    between atoms: _46  and  _47
REMARK   21  A    between atoms: _50  and  _52
REMARK   22  A    between atoms: _52  and  _53
REMARK   23  A    between atoms: _52  and  _55
REMARK   24  A    between atoms: _55  and  _56
REMARK   25  A    between atoms: _56  and  _57
REMARK   26  A    between atoms: _57  and  _58
REMARK   27  A    between atoms: _58  and  _59
REMARK   28  A    between atoms: _63  and  _65
REMARK   29  A    between atoms: _65  and  _66
REMARK   30  A    between atoms: _65  and  _68
REMARK   31  A    between atoms: _68  and  _69
REMARK   32  A    between atoms: _71  and  _73
REMARK   33  A    between atoms: _73  and  _74
REMARK   34  A    between atoms: _73  and  _76
REMARK   35  A    between atoms: _79  and  _81
REMARK   36  A    between atoms: _81  and  _82
REMARK   37  A    between atoms: _81  and  _84
REMARK   38  A    between atoms: _84  and  _85
REMARK   39  A    between atoms: _90  and  _91
REMARK   40  A    between atoms: _93  and  _95
REMARK   41  A    between atoms: _95  and  _96
REMARK   42  A    between atoms: _99  and  _101
REMARK   43  A    between atoms: _101  and  _102
REMARK   44  A    between atoms: _105  and  _107
REMARK   45  A    between atoms: _107  and  _108
REMARK   46  A    between atoms: _107  and  _110
REMARK   47  A    between atoms: _110  and  _111
REMARK   48  A    between atoms: _114  and  _116
REMARK   49  A    between atoms: _116  and  _117
REMARK   50  A    between atoms: _116  and  _119
REMARK   51  A    between atoms: _119  and  _120
REMARK   52  A    between atoms: _123  and  _125
REMARK   53  A    between atoms: _125  and  _126
REMARK   54  A    between atoms: _125  and  _128
REMARK   55  A    between atoms: _128  and  _129
REMARK   56  A    between atoms: _131  and  _133
REMARK   57  A    between atoms: _133  and  _134
REMARK   58  A    between atoms: _133  and  _136
REMARK   59  A    between atoms: _136  and  _137
REMARK   60  A    between atoms: _137  and  _256
REMARK   61  A    between atoms: _138  and  _140
REMARK   62  A    between atoms: _140  and  _141
REMARK   63  A    between atoms: _140  and  _143
REMARK   64  A    between atoms: _143  and  _144
REMARK   65  A    between atoms: _144  and  _145
REMARK   66  A    between atoms: _150  and  _152
REMARK   67  A    between atoms: _152  and  _153
REMARK   68  A    between atoms: _155  and  _157
REMARK   69  A    between atoms: _157  and  _158
REMARK   70  A    between atoms: _157  and  _160
REMARK   71  A    between atoms: _160  and  _161
REMARK   72  A    between atoms: _164  and  _166
REMARK   73  A    between atoms: _166  and  _167
REMARK   74  A    between atoms: _166  and  _169
REMARK   75  A    between atoms: _169  and  _170
REMARK   76  A    between atoms: _172  and  _174
REMARK   77  A    between atoms: _174  and  _175
REMARK   78  A    between atoms: _177  and  _179
REMARK   79  A    between atoms: _179  and  _180
REMARK   80  A    between atoms: _182  and  _184
REMARK   81  A    between atoms: _184  and  _185
REMARK   82  A    between atoms: _184  and  _187
REMARK   83  A    between atoms: _187  and  _188
REMARK   84  A    between atoms: _191  and  _193
REMARK   85  A    between atoms: _193  and  _194
REMARK   86  A    between atoms: _193  and  _196
REMARK   87  A    between atoms: _199  and  _201
REMARK   88  A    between atoms: _201  and  _202
REMARK   89  A    between atoms: _201  and  _204
REMARK   90  A    between atoms: _204  and  _205
REMARK   91  A    between atoms: _207  and  _209
REMARK   92  A    between atoms: _209  and  _210
REMARK   93  A    between atoms: _209  and  _212
REMARK   94  A    between atoms: _212  and  _213
REMARK   95  A    between atoms: _223  and  _225
REMARK   96  A    between atoms: _225  and  _226
REMARK   97  A    between atoms: _228  and  _230
REMARK   98  A    between atoms: _230  and  _231
REMARK   99  A    between atoms: _230  and  _233
REMARK  100  A    between atoms: _233  and  _234
REMARK  101  A    between atoms: _234  and  _235
REMARK  102  A    between atoms: _235  and  _236
REMARK  103  A    between atoms: _245  and  _247
REMARK  104  A    between atoms: _247  and  _248
REMARK  105  A    between atoms: _250  and  _252
REMARK  106  A    between atoms: _252  and  _253
REMARK  107  A    between atoms: _252  and  _255
REMARK  108  A    between atoms: _255  and  _256
REMARK  109  A    between atoms: _257  and  _259
REMARK  110  A    between atoms: _259  and  _260
REMARK  111  A    between atoms: _263  and  _265
REMARK  112  A    between atoms: _265  and  _266
REMARK  113  A    between atoms: _265  and  _268
REMARK  114  A    between atoms: _268  and  _269
REMARK  115  A    between atoms: _272  and  _274
REMARK  116  A    between atoms: _274  and  _275
REMARK  117  A    between atoms: _274  and  _277
REMARK  118  A    between atoms: _277  and  _278
REMARK  119  A    between atoms: _278  and  _279
REMARK  120  A    between atoms: _279  and  _280
REMARK  121  A    between atoms: _280  and  _281
REMARK  122  A    between atoms: _286  and  _287
REMARK  123  A    between atoms: _292  and  _294
REMARK  124  A    between atoms: _294  and  _295
REMARK  125  A    between atoms: _297  and  _299
REMARK  126  A    between atoms: _299  and  _300
REMARK  127  A    between atoms: _299  and  _302
REMARK  128  A    between atoms: _305  and  _307
REMARK  129  A    between atoms: _307  and  _308
REMARK  130  A    between atoms: _307  and  _310
REMARK  131  A    between atoms: _310  and  _311
REMARK  132  A    between atoms: _316  and  _317
REMARK                            x       y       z     vdW  Elec       q    Type
REMARK                         _______ _______ _______ _____ _____    ______ ____
ROOT
ATOM      1  O   HOH     1      33.685  -1.196  28.252  0.00  0.00    +0.000 OA
ENDROOT
TORSDOF 0
REMARK  Name = ../refined-set-2016/1f5k/1f5k_pocket.pdb
REMARK  132 active torsions:
REMARK  status: ('A' for Active; 'I' for Inactive)
REMARK    1  A    between atoms: _1  and  _3
REMARK    2  A    between atoms: _3  and  _4
REMARK    3  A    between atoms: _3  and  _6
REMARK    4  A    between atoms: _6  and  _7
REMARK    5  A    between atoms: _10  and  _12
REMARK    6  A    between atoms: _12  and  _13
REMARK    7  A    between atoms: _12  and  _15
REMARK    8  A    between atoms: _15  and  _16
REMARK    9  A    between atoms: _21  and  _23
REMARK   10  A    between atoms: _23  and  _24
REMARK   11  A    between atoms: _23  and  _26
REMARK   12  A    between atoms: _26  and  _27
REMARK   13  A    between atoms: _32  and  _34
REMARK   14  A    between atoms: _34  and  _35
REMARK   15  A    between atoms: _34  and  _37
REMARK   16  A    between atoms: _37  and  _38
REMARK   17  A    between atoms: _41  and  _43
REMARK   18  A    between atoms: _43  and  _44
REMARK   19  A    between atoms: _43  and  _46
REMARK   20  A    between atoms: _46  and  _47
REMARK   21  A    between atoms: _50  and  _52
REMARK   22  A    between atoms: _52  and  _53
REMARK   23  A    between atoms: _52  and  _55
REMARK   24  A    between atoms: _55  and  _56
REMARK   25  A    between atoms: _56  and  _57
REMARK   26  A    between atoms: _57  and  _58
REMARK   27  A    between atoms: _58  and  _59
REMARK   28  A    between atoms: _63  and  _65
REMARK   29  A    between atoms: _65  and  _66
REMARK   30  A    between atoms: _65  and  _68
REMARK   31  A    between atoms: _68  and  _69
REMARK   32  A    between atoms: _71  and  _73
REMARK   33  A    between atoms: _73  and  _74
REMARK   34  A    between atoms: _73  and  _76
REMARK   35  A    between atoms: _79  and  _81
REMARK   36  A    between atoms: _81  and  _82
REMARK   37  A    between atoms: _81  and  _84
REMARK   38  A    between atoms: _84  and  _85
REMARK   39  A    between atoms: _90  and  _91
REMARK   40  A    between atoms: _93  and  _95
REMARK   41  A    between atoms: _95  and  _96
REMARK   42  A    between atoms: _99  and  _101
REMARK   43  A    between atoms: _101  and  _102
REMARK   44  A    between atoms: _105  and  _107
REMARK   45  A    between atoms: _107  and  _108
REMARK   46  A    between atoms: _107  and  _110
REMARK   47  A    between atoms: _110  and  _111
REMARK   48  A    between atoms: _114  and  _116
REMARK   49  A    between atoms: _116  and  _117
REMARK   50  A    between atoms: _116  and  _119
REMARK   51  A    between atoms: _119  and  _120
REMARK   52  A    between atoms: _123  and  _125
REMARK   53  A    between atoms: _125  and  _126
REMARK   54  A    between atoms: _125  and  _128
REMARK   55  A    between atoms: _128  and  _129
REMARK   56  A    between atoms: _131  and  _133
REMARK   57  A    between atoms: _133  and  _134
REMARK   58  A    between atoms: _133  and  _136
REMARK   59  A    between atoms: _136  and  _137
REMARK   60  A    between atoms: _137  and  _256
REMARK   61  A    between atoms: _138  and  _140
REMARK   62  A    between atoms: _140  and  _141
REMARK   63  A    between atoms: _140  and  _143
REMARK   64  A    between atoms: _143  and  _144
REMARK   65  A    between atoms: _144  and  _145
REMARK   66  A    between atoms: _150  and  _152
REMARK   67  A    between atoms: _152  and  _153
REMARK   68  A    between atoms: _155  and  _157
REMARK   69  A    between atoms: _157  and  _158
REMARK   70  A    between atoms: _157  and  _160
REMARK   71  A    between atoms: _160  and  _161
REMARK   72  A    between atoms: _164  and  _166
REMARK   73  A    between atoms: _166  and  _167
REMARK   74  A    between atoms: _166  and  _169
REMARK   75  A    between atoms: _169  and  _170
REMARK   76  A    between atoms: _172  and  _174
REMARK   77  A    between atoms: _174  and  _175
REMARK   78  A    between atoms: _177  and  _179
REMARK   79  A    between atoms: _179  and  _180
REMARK   80  A    between atoms: _182  and  _184
REMARK   81  A    between atoms: _184  and  _185
REMARK   82  A    between atoms: _184  and  _187
REMARK   83  A    between atoms: _187  and  _188
REMARK   84  A    between atoms: _191  and  _193
REMARK   85  A    between atoms: _193  and  _194
REMARK   86  A    between atoms: _193  and  _196
REMARK   87  A    between atoms: _199  and  _201
REMARK   88  A    between atoms: _201  and  _202
REMARK   89  A    between atoms: _201  and  _204
REMARK   90  A    between atoms: _204  and  _205
REMARK   91  A    between atoms: _207  and  _209
REMARK   92  A    between atoms: _209  and  _210
REMARK   93  A    between atoms: _209  and  _212
REMARK   94  A    between atoms: _212  and  _213
REMARK   95  A    between atoms: _223  and  _225
REMARK   96  A    between atoms: _225  and  _226
REMARK   97  A    between atoms: _228  and  _230
REMARK   98  A    between atoms: _230  and  _231
REMARK   99  A    between atoms: _230  and  _233
REMARK  100  A    between atoms: _233  and  _234
REMARK  101  A    between atoms: _234  and  _235
REMARK  102  A    between atoms: _235  and  _236
REMARK  103  A    between atoms: _245  and  _247
REMARK  104  A    between atoms: _247  and  _248
REMARK  105  A    between atoms: _250  and  _252
REMARK  106  A    between atoms: _252  and  _253
REMARK  107  A    between atoms: _252  and  _255
REMARK  108  A    between atoms: _255  and  _256
REMARK  109  A    between atoms: _257  and  _259
REMARK  110  A    between atoms: _259  and  _260
REMARK  111  A    between atoms: _263  and  _265
REMARK  112  A    between atoms: _265  and  _266
REMARK  113  A    between atoms: _265  and  _268
REMARK  114  A    between atoms: _268  and  _269
REMARK  115  A    between atoms: _272  and  _274
REMARK  116  A    between atoms: _274  and  _275
REMARK  117  A    between atoms: _274  and  _277
REMARK  118  A    between atoms: _277  and  _278
REMARK  119  A    between atoms: _278  and  _279
REMARK  120  A    between atoms: _279  and  _280
REMARK  121  A    between atoms: _280  and  _281
REMARK  122  A    between atoms: _286  and  _287
REMARK  123  A    between atoms: _292  and  _294
REMARK  124  A    between atoms: _294  and  _295
REMARK  125  A    between atoms: _297  and  _299
REMARK  126  A    between atoms: _299  and  _300
REMARK  127  A    between atoms: _299  and  _302
REMARK  128  A    between atoms: _305  and  _307
REMARK  129  A    between atoms: _307  and  _308
REMARK  130  A    between atoms: _307  and  _310
REMARK  131  A    between atoms: _310  and  _311
REMARK  132  A    between atoms: _316  and  _317
REMARK                            x       y       z     vdW  Elec       q    Type
REMARK                         _______ _______ _______ _____ _____    ______ ____
ROOT
ATOM      1  O   HOH     1      37.234   5.159  26.000  0.00  0.00    +0.000 OA
ENDROOT
TORSDOF 0
REMARK  Name = ../refined-set-2016/1f5k/1f5k_pocket.pdb
REMARK  132 active torsions:
REMARK  status: ('A' for Active; 'I' for Inactive)
REMARK    1  A    between atoms: _1  and  _3
REMARK    2  A    between atoms: _3  and  _4
REMARK    3  A    between atoms: _3  and  _6
REMARK    4  A    between atoms: _6  and  _7
REMARK    5  A    between atoms: _10  and  _12
REMARK    6  A    between atoms: _12  and  _13
REMARK    7  A    between atoms: _12  and  _15
REMARK    8  A    between atoms: _15  and  _16
REMARK    9  A    between atoms: _21  and  _23
REMARK   10  A    between atoms: _23  and  _24
REMARK   11  A    between atoms: _23  and  _26
REMARK   12  A    between atoms: _26  and  _27
REMARK   13  A    between atoms: _32  and  _34
REMARK   14  A    between atoms: _34  and  _35
REMARK   15  A    between atoms: _34  and  _37
REMARK   16  A    between atoms: _37  and  _38
REMARK   17  A    between atoms: _41  and  _43
REMARK   18  A    between atoms: _43  and  _44
REMARK   19  A    between atoms: _43  and  _46
REMARK   20  A    between atoms: _46  and  _47
REMARK   21  A    between atoms: _50  and  _52
REMARK   22  A    between atoms: _52  and  _53
REMARK   23  A    between atoms: _52  and  _55
REMARK   24  A    between atoms: _55  and  _56
REMARK   25  A    between atoms: _56  and  _57
REMARK   26  A    between atoms: _57  and  _58
REMARK   27  A    between atoms: _58  and  _59
REMARK   28  A    between atoms: _63  and  _65
REMARK   29  A    between atoms: _65  and  _66
REMARK   30  A    between atoms: _65  and  _68
REMARK   31  A    between atoms: _68  and  _69
REMARK   32  A    between atoms: _71  and  _73
REMARK   33  A    between atoms: _73  and  _74
REMARK   34  A    between atoms: _73  and  _76
REMARK   35  A    between atoms: _79  and  _81
REMARK   36  A    between atoms: _81  and  _82
REMARK   37  A    between atoms: _81  and  _84
REMARK   38  A    between atoms: _84  and  _85
REMARK   39  A    between atoms: _90  and  _91
REMARK   40  A    between atoms: _93  and  _95
REMARK   41  A    between atoms: _95  and  _96
REMARK   42  A    between atoms: _99  and  _101
REMARK   43  A    between atoms: _101  and  _102
REMARK   44  A    between atoms: _105  and  _107
REMARK   45  A    between atoms: _107  and  _108
REMARK   46  A    between atoms: _107  and  _110
REMARK   47  A    between atoms: _110  and  _111
REMARK   48  A    between atoms: _114  and  _116
REMARK   49  A    between atoms: _116  and  _117
REMARK   50  A    between atoms: _116  and  _119
REMARK   51  A    between atoms: _119  and  _120
REMARK   52  A    between atoms: _123  and  _125
REMARK   53  A    between atoms: _125  and  _126
REMARK   54  A    between atoms: _125  and  _128
REMARK   55  A    between atoms: _128  and  _129
REMARK   56  A    between atoms: _131  and  _133
REMARK   57  A    between atoms: _133  and  _134
REMARK   58  A    between atoms: _133  and  _136
REMARK   59  A    between atoms: _136  and  _137
REMARK   60  A    between atoms: _137  and  _256
REMARK   61  A    between atoms: _138  and  _140
REMARK   62  A    between atoms: _140  and  _141
REMARK   63  A    between atoms: _140  and  _143
REMARK   64  A    between atoms: _143  and  _144
REMARK   65  A    between atoms: _144  and  _145
REMARK   66  A    between atoms: _150  and  _152
REMARK   67  A    between atoms: _152  and  _153
REMARK   68  A    between atoms: _155  and  _157
REMARK   69  A    between atoms: _157  and  _158
REMARK   70  A    between atoms: _157  and  _160
REMARK   71  A    between atoms: _160  and  _161
REMARK   72  A    between atoms: _164  and  _166
REMARK   73  A    between atoms: _166  and  _167
REMARK   74  A    between atoms: _166  and  _169
REMARK   75  A    between atoms: _169  and  _170
REMARK   76  A    between atoms: _172  and  _174
REMARK   77  A    between atoms: _174  and  _175
REMARK   78  A    between atoms: _177  and  _179
REMARK   79  A    between atoms: _179  and  _180
REMARK   80  A    between atoms: _182  and  _184
REMARK   81  A    between atoms: _184  and  _185
REMARK   82  A    between atoms: _184  and  _187
REMARK   83  A    between atoms: _187  and  _188
REMARK   84  A    between atoms: _191  and  _193
REMARK   85  A    between atoms: _193  and  _194
REMARK   86  A    between atoms: _193  and  _196
REMARK   87  A    between atoms: _199  and  _201
REMARK   88  A    between atoms: _201  and  _202
REMARK   89  A    between atoms: _201  and  _204
REMARK   90  A    between atoms: _204  and  _205
REMARK   91  A    between atoms: _207  and  _209
REMARK   92  A    between atoms: _209  and  _210
REMARK   93  A    between atoms: _209  and  _212
REMARK   94  A    between atoms: _212  and  _213
REMARK   95  A    between atoms: _223  and  _225
REMARK   96  A    between atoms: _225  and  _226
REMARK   97  A    between atoms: _228  and  _230
REMARK   98  A    between atoms: _230  and  _231
REMARK   99  A    between atoms: _230  and  _233
REMARK  100  A    between atoms: _233  and  _234
REMARK  101  A    between atoms: _234  and  _235
REMARK  102  A    between atoms: _235  and  _236
REMARK  103  A    between atoms: _245  and  _247
REMARK  104  A    between atoms: _247  and  _248
REMARK  105  A    between atoms: _250  and  _252
REMARK  106  A    between atoms: _252  and  _253
REMARK  107  A    between atoms: _252  and  _255
REMARK  108  A    between atoms: _255  and  _256
REMARK  109  A    between atoms: _257  and  _259
REMARK  110  A    between atoms: _259  and  _260
REMARK  111  A    between atoms: _263  and  _265
REMARK  112  A    between atoms: _265  and  _266
REMARK  113  A    between atoms: _265  and  _268
REMARK  114  A    between atoms: _268  and  _269
REMARK  115  A    between atoms: _272  and  _274
REMARK  116  A    between atoms: _274  and  _275
REMARK  117  A    between atoms: _274  and  _277
REMARK  118  A    between atoms: _277  and  _278
REMARK  119  A    between atoms: _278  and  _279
REMARK  120  A    between atoms: _279  and  _280
REMARK  121  A    between atoms: _280  and  _281
REMARK  122  A    between atoms: _286  and  _287
REMARK  123  A    between atoms: _292  and  _294
REMARK  124  A    between atoms: _294  and  _295
REMARK  125  A    between atoms: _297  and  _299
REMARK  126  A    between atoms: _299  and  _300
REMARK  127  A    between atoms: _299  and  _302
REMARK  128  A    between atoms: _305  and  _307
REMARK  129  A    between atoms: _307  and  _308
REMARK  130  A    between atoms: _307  and  _310
REMARK  131  A    between atoms: _310  and  _311
REMARK  132  A    between atoms: _316  and  _317
REMARK                            x       y       z     vdW  Elec       q    Type
REMARK                         _______ _______ _______ _____ _____    ______ ____
ROOT
ATOM      1  O   HOH     1      37.950  -1.053  25.090  0.00  0.00    +0.000 OA
ENDROOT
TORSDOF 0
REMARK  Name = ../refined-set-2016/1f5k/1f5k_pocket.pdb
REMARK  132 active torsions:
REMARK  status: ('A' for Active; 'I' for Inactive)
REMARK    1  A    between atoms: _1  and  _3
REMARK    2  A    between atoms: _3  and  _4
REMARK    3  A    between atoms: _3  and  _6
REMARK    4  A    between atoms: _6  and  _7
REMARK    5  A    between atoms: _10  and  _12
REMARK    6  A    between atoms: _12  and  _13
REMARK    7  A    between atoms: _12  and  _15
REMARK    8  A    between atoms: _15  and  _16
REMARK    9  A    between atoms: _21  and  _23
REMARK   10  A    between atoms: _23  and  _24
REMARK   11  A    between atoms: _23  and  _26
REMARK   12  A    between atoms: _26  and  _27
REMARK   13  A    between atoms: _32  and  _34
REMARK   14  A    between atoms: _34  and  _35
REMARK   15  A    between atoms: _34  and  _37
REMARK   16  A    between atoms: _37  and  _38
REMARK   17  A    between atoms: _41  and  _43
REMARK   18  A    between atoms: _43  and  _44
REMARK   19  A    between atoms: _43  and  _46
REMARK   20  A    between atoms: _46  and  _47
REMARK   21  A    between atoms: _50  and  _52
REMARK   22  A    between atoms: _52  and  _53
REMARK   23  A    between atoms: _52  and  _55
REMARK   24  A    between atoms: _55  and  _56
REMARK   25  A    between atoms: _56  and  _57
REMARK   26  A    between atoms: _57  and  _58
REMARK   27  A    between atoms: _58  and  _59
REMARK   28  A    between atoms: _63  and  _65
REMARK   29  A    between atoms: _65  and  _66
REMARK   30  A    between atoms: _65  and  _68
REMARK   31  A    between atoms: _68  and  _69
REMARK   32  A    between atoms: _71  and  _73
REMARK   33  A    between atoms: _73  and  _74
REMARK   34  A    between atoms: _73  and  _76
REMARK   35  A    between atoms: _79  and  _81
REMARK   36  A    between atoms: _81  and  _82
REMARK   37  A    between atoms: _81  and  _84
REMARK   38  A    between atoms: _84  and  _85
REMARK   39  A    between atoms: _90  and  _91
REMARK   40  A    between atoms: _93  and  _95
REMARK   41  A    between atoms: _95  and  _96
REMARK   42  A    between atoms: _99  and  _101
REMARK   43  A    between atoms: _101  and  _102
REMARK   44  A    between atoms: _105  and  _107
REMARK   45  A    between atoms: _107  and  _108
REMARK   46  A    between atoms: _107  and  _110
REMARK   47  A    between atoms: _110  and  _111
REMARK   48  A    between atoms: _114  and  _116
REMARK   49  A    between atoms: _116  and  _117
REMARK   50  A    between atoms: _116  and  _119
REMARK   51  A    between atoms: _119  and  _120
REMARK   52  A    between atoms: _123  and  _125
REMARK   53  A    between atoms: _125  and  _126
REMARK   54  A    between atoms: _125  and  _128
REMARK   55  A    between atoms: _128  and  _129
REMARK   56  A    between atoms: _131  and  _133
REMARK   57  A    between atoms: _133  and  _134
REMARK   58  A    between atoms: _133  and  _136
REMARK   59  A    between atoms: _136  and  _137
REMARK   60  A    between atoms: _137  and  _256
REMARK   61  A    between atoms: _138  and  _140
REMARK   62  A    between atoms: _140  and  _141
REMARK   63  A    between atoms: _140  and  _143
REMARK   64  A    between atoms: _143  and  _144
REMARK   65  A    between atoms: _144  and  _145
REMARK   66  A    between atoms: _150  and  _152
REMARK   67  A    between atoms: _152  and  _153
REMARK   68  A    between atoms: _155  and  _157
REMARK   69  A    between atoms: _157  and  _158
REMARK   70  A    between atoms: _157  and  _160
REMARK   71  A    between atoms: _160  and  _161
REMARK   72  A    between atoms: _164  and  _166
REMARK   73  A    between atoms: _166  and  _167
REMARK   74  A    between atoms: _166  and  _169
REMARK   75  A    between atoms: _169  and  _170
REMARK   76  A    between atoms: _172  and  _174
REMARK   77  A    between atoms: _174  and  _175
REMARK   78  A    between atoms: _177  and  _179
REMARK   79  A    between atoms: _179  and  _180
REMARK   80  A    between atoms: _182  and  _184
REMARK   81  A    between atoms: _184  and  _185
REMARK   82  A    between atoms: _184  and  _187
REMARK   83  A    between atoms: _187  and  _188
REMARK   84  A    between atoms: _191  and  _193
REMARK   85  A    between atoms: _193  and  _194
REMARK   86  A    between atoms: _193  and  _196
REMARK   87  A    between atoms: _199  and  _201
REMARK   88  A    between atoms: _201  and  _202
REMARK   89  A    between atoms: _201  and  _204
REMARK   90  A    between atoms: _204  and  _205
REMARK   91  A    between atoms: _207  and  _209
REMARK   92  A    between atoms: _209  and  _210
REMARK   93  A    between atoms: _209  and  _212
REMARK   94  A    between atoms: _212  and  _213
REMARK   95  A    between atoms: _223  and  _225
REMARK   96  A    between atoms: _225  and  _226
REMARK   97  A    between atoms: _228  and  _230
REMARK   98  A    between atoms: _230  and  _231
REMARK   99  A    between atoms: _230  and  _233
REMARK  100  A    between atoms: _233  and  _234
REMARK  101  A    between atoms: _234  and  _235
REMARK  102  A    between atoms: _235  and  _236
REMARK  103  A    between atoms: _245  and  _247
REMARK  104  A    between atoms: _247  and  _248
REMARK  105  A    between atoms: _250  and  _252
REMARK  106  A    between atoms: _252  and  _253
REMARK  107  A    between atoms: _252  and  _255
REMARK  108  A    between atoms: _255  and  _256
REMARK  109  A    between atoms: _257  and  _259
REMARK  110  A    between atoms: _259  and  _260
REMARK  111  A    between atoms: _263  and  _265
REMARK  112  A    between atoms: _265  and  _266
REMARK  113  A    between atoms: _265  and  _268
REMARK  114  A    between atoms: _268  and  _269
REMARK  115  A    between atoms: _272  and  _274
REMARK  116  A    between atoms: _274  and  _275
REMARK  117  A    between atoms: _274  and  _277
REMARK  118  A    between atoms: _277  and  _278
REMARK  119  A    between atoms: _278  and  _279
REMARK  120  A    between atoms: _279  and  _280
REMARK  121  A    between atoms: _280  and  _281
REMARK  122  A    between atoms: _286  and  _287
REMARK  123  A    between atoms: _292  and  _294
REMARK  124  A    between atoms: _294  and  _295
REMARK  125  A    between atoms: _297  and  _299
REMARK  126  A    between atoms: _299  and  _300
REMARK  127  A    between atoms: _299  and  _302
REMARK  128  A    between atoms: _305  and  _307
REMARK  129  A    between atoms: _307  and  _308
REMARK  130  A    between atoms: _307  and  _310
REMARK  131  A    between atoms: _310  and  _311
REMARK  132  A    between atoms: _316  and  _317
REMARK                            x       y       z     vdW  Elec       q    Type
REMARK                         _______ _______ _______ _____ _____    ______ ____
ROOT
ATOM      1  O   HOH     1      31.199   9.628  30.693  0.00  0.00    +0.000 OA
ENDROOT
TORSDOF 0
REMARK  Name = ../refined-set-2016/1f5k/1f5k_pocket.pdb
REMARK  132 active torsions:
REMARK  status: ('A' for Active; 'I' for Inactive)
REMARK    1  A    between atoms: _1  and  _3
REMARK    2  A    between atoms: _3  and  _4
REMARK    3  A    between atoms: _3  and  _6
REMARK    4  A    between atoms: _6  and  _7
REMARK    5  A    between atoms: _10  and  _12
REMARK    6  A    between atoms: _12  and  _13
REMARK    7  A    between atoms: _12  and  _15
REMARK    8  A    between atoms: _15  and  _16
REMARK    9  A    between atoms: _21  and  _23
REMARK   10  A    between atoms: _23  and  _24
REMARK   11  A    between atoms: _23  and  _26
REMARK   12  A    between atoms: _26  and  _27
REMARK   13  A    between atoms: _32  and  _34
REMARK   14  A    between atoms: _34  and  _35
REMARK   15  A    between atoms: _34  and  _37
REMARK   16  A    between atoms: _37  and  _38
REMARK   17  A    between atoms: _41  and  _43
REMARK   18  A    between atoms: _43  and  _44
REMARK   19  A    between atoms: _43  and  _46
REMARK   20  A    between atoms: _46  and  _47
REMARK   21  A    between atoms: _50  and  _52
REMARK   22  A    between atoms: _52  and  _53
REMARK   23  A    between atoms: _52  and  _55
REMARK   24  A    between atoms: _55  and  _56
REMARK   25  A    between atoms: _56  and  _57
REMARK   26  A    between atoms: _57  and  _58
REMARK   27  A    between atoms: _58  and  _59
REMARK   28  A    between atoms: _63  and  _65
REMARK   29  A    between atoms: _65  and  _66
REMARK   30  A    between atoms: _65  and  _68
REMARK   31  A    between atoms: _68  and  _69
REMARK   32  A    between atoms: _71  and  _73
REMARK   33  A    between atoms: _73  and  _74
REMARK   34  A    between atoms: _73  and  _76
REMARK   35  A    between atoms: _79  and  _81
REMARK   36  A    between atoms: _81  and  _82
REMARK   37  A    between atoms: _81  and  _84
REMARK   38  A    between atoms: _84  and  _85
REMARK   39  A    between atoms: _90  and  _91
REMARK   40  A    between atoms: _93  and  _95
REMARK   41  A    between atoms: _95  and  _96
REMARK   42  A    between atoms: _99  and  _101
REMARK   43  A    between atoms: _101  and  _102
REMARK   44  A    between atoms: _105  and  _107
REMARK   45  A    between atoms: _107  and  _108
REMARK   46  A    between atoms: _107  and  _110
REMARK   47  A    between atoms: _110  and  _111
REMARK   48  A    between atoms: _114  and  _116
REMARK   49  A    between atoms: _116  and  _117
REMARK   50  A    between atoms: _116  and  _119
REMARK   51  A    between atoms: _119  and  _120
REMARK   52  A    between atoms: _123  and  _125
REMARK   53  A    between atoms: _125  and  _126
REMARK   54  A    between atoms: _125  and  _128
REMARK   55  A    between atoms: _128  and  _129
REMARK   56  A    between atoms: _131  and  _133
REMARK   57  A    between atoms: _133  and  _134
REMARK   58  A    between atoms: _133  and  _136
REMARK   59  A    between atoms: _136  and  _137
REMARK   60  A    between atoms: _137  and  _256
REMARK   61  A    between atoms: _138  and  _140
REMARK   62  A    between atoms: _140  and  _141
REMARK   63  A    between atoms: _140  and  _143
REMARK   64  A    between atoms: _143  and  _144
REMARK   65  A    between atoms: _144  and  _145
REMARK   66  A    between atoms: _150  and  _152
REMARK   67  A    between atoms: _152  and  _153
REMARK   68  A    between atoms: _155  and  _157
REMARK   69  A    between atoms: _157  and  _158
REMARK   70  A    between atoms: _157  and  _160
REMARK   71  A    between atoms: _160  and  _161
REMARK   72  A    between atoms: _164  and  _166
REMARK   73  A    between atoms: _166  and  _167
REMARK   74  A    between atoms: _166  and  _169
REMARK   75  A    between atoms: _169  and  _170
REMARK   76  A    between atoms: _172  and  _174
REMARK   77  A    between atoms: _174  and  _175
REMARK   78  A    between atoms: _177  and  _179
REMARK   79  A    between atoms: _179  and  _180
REMARK   80  A    between atoms: _182  and  _184
REMARK   81  A    between atoms: _184  and  _185
REMARK   82  A    between atoms: _184  and  _187
REMARK   83  A    between atoms: _187  and  _188
REMARK   84  A    between atoms: _191  and  _193
REMARK   85  A    between atoms: _193  and  _194
REMARK   86  A    between atoms: _193  and  _196
REMARK   87  A    between atoms: _199  and  _201
REMARK   88  A    between atoms: _201  and  _202
REMARK   89  A    between atoms: _201  and  _204
REMARK   90  A    between atoms: _204  and  _205
REMARK   91  A    between atoms: _207  and  _209
REMARK   92  A    between atoms: _209  and  _210
REMARK   93  A    between atoms: _209  and  _212
REMARK   94  A    between atoms: _212  and  _213
REMARK   95  A    between atoms: _223  and  _225
REMARK   96  A    between atoms: _225  and  _226
REMARK   97  A    between atoms: _228  and  _230
REMARK   98  A    between atoms: _230  and  _231
REMARK   99  A    between atoms: _230  and  _233
REMARK  100  A    between atoms: _233  and  _234
REMARK  101  A    between atoms: _234  and  _235
REMARK  102  A    between atoms: _235  and  _236
REMARK  103  A    between atoms: _245  and  _247
REMARK  104  A    between atoms: _247  and  _248
REMARK  105  A    between atoms: _250  and  _252
REMARK  106  A    between atoms: _252  and  _253
REMARK  107  A    between atoms: _252  and  _255
REMARK  108  A    between atoms: _255  and  _256
REMARK  109  A    between atoms: _257  and  _259
REMARK  110  A    between atoms: _259  and  _260
REMARK  111  A    between atoms: _263  and  _265
REMARK  112  A    between atoms: _265  and  _266
REMARK  113  A    between atoms: _265  and  _268
REMARK  114  A    between atoms: _268  and  _269
REMARK  115  A    between atoms: _272  and  _274
REMARK  116  A    between atoms: _274  and  _275
REMARK  117  A    between atoms: _274  and  _277
REMARK  118  A    between atoms: _277  and  _278
REMARK  119  A    between atoms: _278  and  _279
REMARK  120  A    between atoms: _279  and  _280
REMARK  121  A    between atoms: _280  and  _281
REMARK  122  A    between atoms: _286  and  _287
REMARK  123  A    between atoms: _292  and  _294
REMARK  124  A    between atoms: _294  and  _295
REMARK  125  A    between atoms: _297  and  _299
REMARK  126  A    between atoms: _299  and  _300
REMARK  127  A    between atoms: _299  and  _302
REMARK  128  A    between atoms: _305  and  _307
REMARK  129  A    between atoms: _307  and  _308
REMARK  130  A    between atoms: _307  and  _310
REMARK  131  A    between atoms: _310  and  _311
REMARK  132  A    between atoms: _316  and  _317
REMARK                            x       y       z     vdW  Elec       q    Type
REMARK                         _______ _______ _______ _____ _____    ______ ____
ROOT
ATOM      1  O   HOH     1      31.020   2.140  31.054  0.00  0.00    +0.000 OA
ENDROOT
TORSDOF 0
REMARK  Name = ../refined-set-2016/1f5k/1f5k_pocket.pdb
REMARK  132 active torsions:
REMARK  status: ('A' for Active; 'I' for Inactive)
REMARK    1  A    between atoms: _1  and  _3
REMARK    2  A    between atoms: _3  and  _4
REMARK    3  A    between atoms: _3  and  _6
REMARK    4  A    between atoms: _6  and  _7
REMARK    5  A    between atoms: _10  and  _12
REMARK    6  A    between atoms: _12  and  _13
REMARK    7  A    between atoms: _12  and  _15
REMARK    8  A    between atoms: _15  and  _16
REMARK    9  A    between atoms: _21  and  _23
REMARK   10  A    between atoms: _23  and  _24
REMARK   11  A    between atoms: _23  and  _26
REMARK   12  A    between atoms: _26  and  _27
REMARK   13  A    between atoms: _32  and  _34
REMARK   14  A    between atoms: _34  and  _35
REMARK   15  A    between atoms: _34  and  _37
REMARK   16  A    between atoms: _37  and  _38
REMARK   17  A    between atoms: _41  and  _43
REMARK   18  A    between atoms: _43  and  _44
REMARK   19  A    between atoms: _43  and  _46
REMARK   20  A    between atoms: _46  and  _47
REMARK   21  A    between atoms: _50  and  _52
REMARK   22  A    between atoms: _52  and  _53
REMARK   23  A    between atoms: _52  and  _55
REMARK   24  A    between atoms: _55  and  _56
REMARK   25  A    between atoms: _56  and  _57
REMARK   26  A    between atoms: _57  and  _58
REMARK   27  A    between atoms: _58  and  _59
REMARK   28  A    between atoms: _63  and  _65
REMARK   29  A    between atoms: _65  and  _66
REMARK   30  A    between atoms: _65  and  _68
REMARK   31  A    between atoms: _68  and  _69
REMARK   32  A    between atoms: _71  and  _73
REMARK   33  A    between atoms: _73  and  _74
REMARK   34  A    between atoms: _73  and  _76
REMARK   35  A    between atoms: _79  and  _81
REMARK   36  A    between atoms: _81  and  _82
REMARK   37  A    between atoms: _81  and  _84
REMARK   38  A    between atoms: _84  and  _85
REMARK   39  A    between atoms: _90  and  _91
REMARK   40  A    between atoms: _93  and  _95
REMARK   41  A    between atoms: _95  and  _96
REMARK   42  A    between atoms: _99  and  _101
REMARK   43  A    between atoms: _101  and  _102
REMARK   44  A    between atoms: _105  and  _107
REMARK   45  A    between atoms: _107  and  _108
REMARK   46  A    between atoms: _107  and  _110
REMARK   47  A    between atoms: _110  and  _111
REMARK   48  A    between atoms: _114  and  _116
REMARK   49  A    between atoms: _116  and  _117
REMARK   50  A    between atoms: _116  and  _119
REMARK   51  A    between atoms: _119  and  _120
REMARK   52  A    between atoms: _123  and  _125
REMARK   53  A    between atoms: _125  and  _126
REMARK   54  A    between atoms: _125  and  _128
REMARK   55  A    between atoms: _128  and  _129
REMARK   56  A    between atoms: _131  and  _133
REMARK   57  A    between atoms: _133  and  _134
REMARK   58  A    between atoms: _133  and  _136
REMARK   59  A    between atoms: _136  and  _137
REMARK   60  A    between atoms: _137  and  _256
REMARK   61  A    between atoms: _138  and  _140
REMARK   62  A    between atoms: _140  and  _141
REMARK   63  A    between atoms: _140  and  _143
REMARK   64  A    between atoms: _143  and  _144
REMARK   65  A    between atoms: _144  and  _145
REMARK   66  A    between atoms: _150  and  _152
REMARK   67  A    between atoms: _152  and  _153
REMARK   68  A    between atoms: _155  and  _157
REMARK   69  A    between atoms: _157  and  _158
REMARK   70  A    between atoms: _157  and  _160
REMARK   71  A    between atoms: _160  and  _161
REMARK   72  A    between atoms: _164  and  _166
REMARK   73  A    between atoms: _166  and  _167
REMARK   74  A    between atoms: _166  and  _169
REMARK   75  A    between atoms: _169  and  _170
REMARK   76  A    between atoms: _172  and  _174
REMARK   77  A    between atoms: _174  and  _175
REMARK   78  A    between atoms: _177  and  _179
REMARK   79  A    between atoms: _179  and  _180
REMARK   80  A    between atoms: _182  and  _184
REMARK   81  A    between atoms: _184  and  _185
REMARK   82  A    between atoms: _184  and  _187
REMARK   83  A    between atoms: _187  and  _188
REMARK   84  A    between atoms: _191  and  _193
REMARK   85  A    between atoms: _193  and  _194
REMARK   86  A    between atoms: _193  and  _196
REMARK   87  A    between atoms: _199  and  _201
REMARK   88  A    between atoms: _201  and  _202
REMARK   89  A    between atoms: _201  and  _204
REMARK   90  A    between atoms: _204  and  _205
REMARK   91  A    between atoms: _207  and  _209
REMARK   92  A    between atoms: _209  and  _210
REMARK   93  A    between atoms: _209  and  _212
REMARK   94  A    between atoms: _212  and  _213
REMARK   95  A    between atoms: _223  and  _225
REMARK   96  A    between atoms: _225  and  _226
REMARK   97  A    between atoms: _228  and  _230
REMARK   98  A    between atoms: _230  and  _231
REMARK   99  A    between atoms: _230  and  _233
REMARK  100  A    between atoms: _233  and  _234
REMARK  101  A    between atoms: _234  and  _235
REMARK  102  A    between atoms: _235  and  _236
REMARK  103  A    between atoms: _245  and  _247
REMARK  104  A    between atoms: _247  and  _248
REMARK  105  A    between atoms: _250  and  _252
REMARK  106  A    between atoms: _252  and  _253
REMARK  107  A    between atoms: _252  and  _255
REMARK  108  A    between atoms: _255  and  _256
REMARK  109  A    between atoms: _257  and  _259
REMARK  110  A    between atoms: _259  and  _260
REMARK  111  A    between atoms: _263  and  _265
REMARK  112  A    between atoms: _265  and  _266
REMARK  113  A    between atoms: _265  and  _268
REMARK  114  A    between atoms: _268  and  _269
REMARK  115  A    between atoms: _272  and  _274
REMARK  116  A    between atoms: _274  and  _275
REMARK  117  A    between atoms: _274  and  _277
REMARK  118  A    between atoms: _277  and  _278
REMARK  119  A    between atoms: _278  and  _279
REMARK  120  A    between atoms: _279  and  _280
REMARK  121  A    between atoms: _280  and  _281
REMARK  122  A    between atoms: _286  and  _287
REMARK  123  A    between atoms: _292  and  _294
REMARK  124  A    between atoms: _294  and  _295
REMARK  125  A    between atoms: _297  and  _299
REMARK  126  A    between atoms: _299  and  _300
REMARK  127  A    between atoms: _299  and  _302
REMARK  128  A    between atoms: _305  and  _307
REMARK  129  A    between atoms: _307  and  _308
REMARK  130  A    between atoms: _307  and  _310
REMARK  131  A    between atoms: _310  and  _311
REMARK  132  A    between atoms: _316  and  _317
REMARK                            x       y       z     vdW  Elec       q    Type
REMARK                         _______ _______ _______ _____ _____    ______ ____
ROOT
ATOM      1  O   HOH     1      37.965   1.689  26.241  0.00  0.00    +0.000 OA
ENDROOT
TORSDOF 0
REMARK  Name = ../refined-set-2016/1f5k/1f5k_pocket.pdb
REMARK  132 active torsions:
REMARK  status: ('A' for Active; 'I' for Inactive)
REMARK    1  A    between atoms: _1  and  _3
REMARK    2  A    between atoms: _3  and  _4
REMARK    3  A    between atoms: _3  and  _6
REMARK    4  A    between atoms: _6  and  _7
REMARK    5  A    between atoms: _10  and  _12
REMARK    6  A    between atoms: _12  and  _13
REMARK    7  A    between atoms: _12  and  _15
REMARK    8  A    between atoms: _15  and  _16
REMARK    9  A    between atoms: _21  and  _23
REMARK   10  A    between atoms: _23  and  _24
REMARK   11  A    between atoms: _23  and  _26
REMARK   12  A    between atoms: _26  and  _27
REMARK   13  A    between atoms: _32  and  _34
REMARK   14  A    between atoms: _34  and  _35
REMARK   15  A    between atoms: _34  and  _37
REMARK   16  A    between atoms: _37  and  _38
REMARK   17  A    between atoms: _41  and  _43
REMARK   18  A    between atoms: _43  and  _44
REMARK   19  A    between atoms: _43  and  _46
REMARK   20  A    between atoms: _46  and  _47
REMARK   21  A    between atoms: _50  and  _52
REMARK   22  A    between atoms: _52  and  _53
REMARK   23  A    between atoms: _52  and  _55
REMARK   24  A    between atoms: _55  and  _56
REMARK   25  A    between atoms: _56  and  _57
REMARK   26  A    between atoms: _57  and  _58
REMARK   27  A    between atoms: _58  and  _59
REMARK   28  A    between atoms: _63  and  _65
REMARK   29  A    between atoms: _65  and  _66
REMARK   30  A    between atoms: _65  and  _68
REMARK   31  A    between atoms: _68  and  _69
REMARK   32  A    between atoms: _71  and  _73
REMARK   33  A    between atoms: _73  and  _74
REMARK   34  A    between atoms: _73  and  _76
REMARK   35  A    between atoms: _79  and  _81
REMARK   36  A    between atoms: _81  and  _82
REMARK   37  A    between atoms: _81  and  _84
REMARK   38  A    between atoms: _84  and  _85
REMARK   39  A    between atoms: _90  and  _91
REMARK   40  A    between atoms: _93  and  _95
REMARK   41  A    between atoms: _95  and  _96
REMARK   42  A    between atoms: _99  and  _101
REMARK   43  A    between atoms: _101  and  _102
REMARK   44  A    between atoms: _105  and  _107
REMARK   45  A    between atoms: _107  and  _108
REMARK   46  A    between atoms: _107  and  _110
REMARK   47  A    between atoms: _110  and  _111
REMARK   48  A    between atoms: _114  and  _116
REMARK   49  A    between atoms: _116  and  _117
REMARK   50  A    between atoms: _116  and  _119
REMARK   51  A    between atoms: _119  and  _120
REMARK   52  A    between atoms: _123  and  _125
REMARK   53  A    between atoms: _125  and  _126
REMARK   54  A    between atoms: _125  and  _128
REMARK   55  A    between atoms: _128  and  _129
REMARK   56  A    between atoms: _131  and  _133
REMARK   57  A    between atoms: _133  and  _134
REMARK   58  A    between atoms: _133  and  _136
REMARK   59  A    between atoms: _136  and  _137
REMARK   60  A    between atoms: _137  and  _256
REMARK   61  A    between atoms: _138  and  _140
REMARK   62  A    between atoms: _140  and  _141
REMARK   63  A    between atoms: _140  and  _143
REMARK   64  A    between atoms: _143  and  _144
REMARK   65  A    between atoms: _144  and  _145
REMARK   66  A    between atoms: _150  and  _152
REMARK   67  A    between atoms: _152  and  _153
REMARK   68  A    between atoms: _155  and  _157
REMARK   69  A    between atoms: _157  and  _158
REMARK   70  A    between atoms: _157  and  _160
REMARK   71  A    between atoms: _160  and  _161
REMARK   72  A    between atoms: _164  and  _166
REMARK   73  A    between atoms: _166  and  _167
REMARK   74  A    between atoms: _166  and  _169
REMARK   75  A    between atoms: _169  and  _170
REMARK   76  A    between atoms: _172  and  _174
REMARK   77  A    between atoms: _174  and  _175
REMARK   78  A    between atoms: _177  and  _179
REMARK   79  A    between atoms: _179  and  _180
REMARK   80  A    between atoms: _182  and  _184
REMARK   81  A    between atoms: _184  and  _185
REMARK   82  A    between atoms: _184  and  _187
REMARK   83  A    between atoms: _187  and  _188
REMARK   84  A    between atoms: _191  and  _193
REMARK   85  A    between atoms: _193  and  _194
REMARK   86  A    between atoms: _193  and  _196
REMARK   87  A    between atoms: _199  and  _201
REMARK   88  A    between atoms: _201  and  _202
REMARK   89  A    between atoms: _201  and  _204
REMARK   90  A    between atoms: _204  and  _205
REMARK   91  A    between atoms: _207  and  _209
REMARK   92  A    between atoms: _209  and  _210
REMARK   93  A    between atoms: _209  and  _212
REMARK   94  A    between atoms: _212  and  _213
REMARK   95  A    between atoms: _223  and  _225
REMARK   96  A    between atoms: _225  and  _226
REMARK   97  A    between atoms: _228  and  _230
REMARK   98  A    between atoms: _230  and  _231
REMARK   99  A    between atoms: _230  and  _233
REMARK  100  A    between atoms: _233  and  _234
REMARK  101  A    between atoms: _234  and  _235
REMARK  102  A    between atoms: _235  and  _236
REMARK  103  A    between atoms: _245  and  _247
REMARK  104  A    between atoms: _247  and  _248
REMARK  105  A    between atoms: _250  and  _252
REMARK  106  A    between atoms: _252  and  _253
REMARK  107  A    between atoms: _252  and  _255
REMARK  108  A    between atoms: _255  and  _256
REMARK  109  A    between atoms: _257  and  _259
REMARK  110  A    between atoms: _259  and  _260
REMARK  111  A    between atoms: _263  and  _265
REMARK  112  A    between atoms: _265  and  _266
REMARK  113  A    between atoms: _265  and  _268
REMARK  114  A    between atoms: _268  and  _269
REMARK  115  A    between atoms: _272  and  _274
REMARK  116  A    between atoms: _274  and  _275
REMARK  117  A    between atoms: _274  and  _277
REMARK  118  A    between atoms: _277  and  _278
REMARK  119  A    between atoms: _278  and  _279
REMARK  120  A    between atoms: _279  and  _280
REMARK  121  A    between atoms: _280  and  _281
REMARK  122  A    between atoms: _286  and  _287
REMARK  123  A    between atoms: _292  and  _294
REMARK  124  A    between atoms: _294  and  _295
REMARK  125  A    between atoms: _297  and  _299
REMARK  126  A    between atoms: _299  and  _300
REMARK  127  A    between atoms: _299  and  _302
REMARK  128  A    between atoms: _305  and  _307
REMARK  129  A    between atoms: _307  and  _308
REMARK  130  A    between atoms: _307  and  _310
REMARK  131  A    between atoms: _310  and  _311
REMARK  132  A    between atoms: _316  and  _317
REMARK                            x       y       z     vdW  Elec       q    Type
REMARK                         _______ _______ _______ _____ _____    ______ ____
ROOT
ATOM      1  O   HOH     1      32.332  10.216  27.630  0.00  0.00    +0.000 OA
ENDROOT
TORSDOF 0
REMARK  Name = ../refined-set-2016/1f5k/1f5k_pocket.pdb
REMARK  132 active torsions:
REMARK  status: ('A' for Active; 'I' for Inactive)
REMARK    1  A    between atoms: _1  and  _3
REMARK    2  A    between atoms: _3  and  _4
REMARK    3  A    between atoms: _3  and  _6
REMARK    4  A    between atoms: _6  and  _7
REMARK    5  A    between atoms: _10  and  _12
REMARK    6  A    between atoms: _12  and  _13
REMARK    7  A    between atoms: _12  and  _15
REMARK    8  A    between atoms: _15  and  _16
REMARK    9  A    between atoms: _21  and  _23
REMARK   10  A    between atoms: _23  and  _24
REMARK   11  A    between atoms: _23  and  _26
REMARK   12  A    between atoms: _26  and  _27
REMARK   13  A    between atoms: _32  and  _34
REMARK   14  A    between atoms: _34  and  _35
REMARK   15  A    between atoms: _34  and  _37
REMARK   16  A    between atoms: _37  and  _38
REMARK   17  A    between atoms: _41  and  _43
REMARK   18  A    between atoms: _43  and  _44
REMARK   19  A    between atoms: _43  and  _46
REMARK   20  A    between atoms: _46  and  _47
REMARK   21  A    between atoms: _50  and  _52
REMARK   22  A    between atoms: _52  and  _53
REMARK   23  A    between atoms: _52  and  _55
REMARK   24  A    between atoms: _55  and  _56
REMARK   25  A    between atoms: _56  and  _57
REMARK   26  A    between atoms: _57  and  _58
REMARK   27  A    between atoms: _58  and  _59
REMARK   28  A    between atoms: _63  and  _65
REMARK   29  A    between atoms: _65  and  _66
REMARK   30  A    between atoms: _65  and  _68
REMARK   31  A    between atoms: _68  and  _69
REMARK   32  A    between atoms: _71  and  _73
REMARK   33  A    between atoms: _73  and  _74
REMARK   34  A    between atoms: _73  and  _76
REMARK   35  A    between atoms: _79  and  _81
REMARK   36  A    between atoms: _81  and  _82
REMARK   37  A    between atoms: _81  and  _84
REMARK   38  A    between atoms: _84  and  _85
REMARK   39  A    between atoms: _90  and  _91
REMARK   40  A    between atoms: _93  and  _95
REMARK   41  A    between atoms: _95  and  _96
REMARK   42  A    between atoms: _99  and  _101
REMARK   43  A    between atoms: _101  and  _102
REMARK   44  A    between atoms: _105  and  _107
REMARK   45  A    between atoms: _107  and  _108
REMARK   46  A    between atoms: _107  and  _110
REMARK   47  A    between atoms: _110  and  _111
REMARK   48  A    between atoms: _114  and  _116
REMARK   49  A    between atoms: _116  and  _117
REMARK   50  A    between atoms: _116  and  _119
REMARK   51  A    between atoms: _119  and  _120
REMARK   52  A    between atoms: _123  and  _125
REMARK   53  A    between atoms: _125  and  _126
REMARK   54  A    between atoms: _125  and  _128
REMARK   55  A    between atoms: _128  and  _129
REMARK   56  A    between atoms: _131  and  _133
REMARK   57  A    between atoms: _133  and  _134
REMARK   58  A    between atoms: _133  and  _136
REMARK   59  A    between atoms: _136  and  _137
REMARK   60  A    between atoms: _137  and  _256
REMARK   61  A    between atoms: _138  and  _140
REMARK   62  A    between atoms: _140  and  _141
REMARK   63  A    between atoms: _140  and  _143
REMARK   64  A    between atoms: _143  and  _144
REMARK   65  A    between atoms: _144  and  _145
REMARK   66  A    between atoms: _150  and  _152
REMARK   67  A    between atoms: _152  and  _153
REMARK   68  A    between atoms: _155  and  _157
REMARK   69  A    between atoms: _157  and  _158
REMARK   70  A    between atoms: _157  and  _160
REMARK   71  A    between atoms: _160  and  _161
REMARK   72  A    between atoms: _164  and  _166
REMARK   73  A    between atoms: _166  and  _167
REMARK   74  A    between atoms: _166  and  _169
REMARK   75  A    between atoms: _169  and  _170
REMARK   76  A    between atoms: _172  and  _174
REMARK   77  A    between atoms: _174  and  _175
REMARK   78  A    between atoms: _177  and  _179
REMARK   79  A    between atoms: _179  and  _180
REMARK   80  A    between atoms: _182  and  _184
REMARK   81  A    between atoms: _184  and  _185
REMARK   82  A    between atoms: _184  and  _187
REMARK   83  A    between atoms: _187  and  _188
REMARK   84  A    between atoms: _191  and  _193
REMARK   85  A    between atoms: _193  and  _194
REMARK   86  A    between atoms: _193  and  _196
REMARK   87  A    between atoms: _199  and  _201
REMARK   88  A    between atoms: _201  and  _202
REMARK   89  A    between atoms: _201  and  _204
REMARK   90  A    between atoms: _204  and  _205
REMARK   91  A    between atoms: _207  and  _209
REMARK   92  A    between atoms: _209  and  _210
REMARK   93  A    between atoms: _209  and  _212
REMARK   94  A    between atoms: _212  and  _213
REMARK   95  A    between atoms: _223  and  _225
REMARK   96  A    between atoms: _225  and  _226
REMARK   97  A    between atoms: _228  and  _230
REMARK   98  A    between atoms: _230  and  _231
REMARK   99  A    between atoms: _230  and  _233
REMARK  100  A    between atoms: _233  and  _234
REMARK  101  A    between atoms: _234  and  _235
REMARK  102  A    between atoms: _235  and  _236
REMARK  103  A    between atoms: _245  and  _247
REMARK  104  A    between atoms: _247  and  _248
REMARK  105  A    between atoms: _250  and  _252
REMARK  106  A    between atoms: _252  and  _253
REMARK  107  A    between atoms: _252  and  _255
REMARK  108  A    between atoms: _255  and  _256
REMARK  109  A    between atoms: _257  and  _259
REMARK  110  A    between atoms: _259  and  _260
REMARK  111  A    between atoms: _263  and  _265
REMARK  112  A    between atoms: _265  and  _266
REMARK  113  A    between atoms: _265  and  _268
REMARK  114  A    between atoms: _268  and  _269
REMARK  115  A    between atoms: _272  and  _274
REMARK  116  A    between atoms: _274  and  _275
REMARK  117  A    between atoms: _274  and  _277
REMARK  118  A    between atoms: _277  and  _278
REMARK  119  A    between atoms: _278  and  _279
REMARK  120  A    between atoms: _279  and  _280
REMARK  121  A    between atoms: _280  and  _281
REMARK  122  A    between atoms: _286  and  _287
REMARK  123  A    between atoms: _292  and  _294
REMARK  124  A    between atoms: _294  and  _295
REMARK  125  A    between atoms: _297  and  _299
REMARK  126  A    between atoms: _299  and  _300
REMARK  127  A    between atoms: _299  and  _302
REMARK  128  A    between atoms: _305  and  _307
REMARK  129  A    between atoms: _307  and  _308
REMARK  130  A    between atoms: _307  and  _310
REMARK  131  A    between atoms: _310  and  _311
REMARK  132  A    between atoms: _316  and  _317
REMARK                            x       y       z     vdW  Elec       q    Type
REMARK                         _______ _______ _______ _____ _____    ______ ____
ROOT
ATOM      1  O   HOH     1      36.074   4.876  28.745  0.00  0.00    +0.000 OA
ENDROOT
TORSDOF 0
REMARK  Name = ../refined-set-2016/1f5k/1f5k_pocket.pdb
REMARK  132 active torsions:
REMARK  status: ('A' for Active; 'I' for Inactive)
REMARK    1  A    between atoms: _1  and  _3
REMARK    2  A    between atoms: _3  and  _4
REMARK    3  A    between atoms: _3  and  _6
REMARK    4  A    between atoms: _6  and  _7
REMARK    5  A    between atoms: _10  and  _12
REMARK    6  A    between atoms: _12  and  _13
REMARK    7  A    between atoms: _12  and  _15
REMARK    8  A    between atoms: _15  and  _16
REMARK    9  A    between atoms: _21  and  _23
REMARK   10  A    between atoms: _23  and  _24
REMARK   11  A    between atoms: _23  and  _26
REMARK   12  A    between atoms: _26  and  _27
REMARK   13  A    between atoms: _32  and  _34
REMARK   14  A    between atoms: _34  and  _35
REMARK   15  A    between atoms: _34  and  _37
REMARK   16  A    between atoms: _37  and  _38
REMARK   17  A    between atoms: _41  and  _43
REMARK   18  A    between atoms: _43  and  _44
REMARK   19  A    between atoms: _43  and  _46
REMARK   20  A    between atoms: _46  and  _47
REMARK   21  A    between atoms: _50  and  _52
REMARK   22  A    between atoms: _52  and  _53
REMARK   23  A    between atoms: _52  and  _55
REMARK   24  A    between atoms: _55  and  _56
REMARK   25  A    between atoms: _56  and  _57
REMARK   26  A    between atoms: _57  and  _58
REMARK   27  A    between atoms: _58  and  _59
REMARK   28  A    between atoms: _63  and  _65
REMARK   29  A    between atoms: _65  and  _66
REMARK   30  A    between atoms: _65  and  _68
REMARK   31  A    between atoms: _68  and  _69
REMARK   32  A    between atoms: _71  and  _73
REMARK   33  A    between atoms: _73  and  _74
REMARK   34  A    between atoms: _73  and  _76
REMARK   35  A    between atoms: _79  and  _81
REMARK   36  A    between atoms: _81  and  _82
REMARK   37  A    between atoms: _81  and  _84
REMARK   38  A    between atoms: _84  and  _85
REMARK   39  A    between atoms: _90  and  _91
REMARK   40  A    between atoms: _93  and  _95
REMARK   41  A    between atoms: _95  and  _96
REMARK   42  A    between atoms: _99  and  _101
REMARK   43  A    between atoms: _101  and  _102
REMARK   44  A    between atoms: _105  and  _107
REMARK   45  A    between atoms: _107  and  _108
REMARK   46  A    between atoms: _107  and  _110
REMARK   47  A    between atoms: _110  and  _111
REMARK   48  A    between atoms: _114  and  _116
REMARK   49  A    between atoms: _116  and  _117
REMARK   50  A    between atoms: _116  and  _119
REMARK   51  A    between atoms: _119  and  _120
REMARK   52  A    between atoms: _123  and  _125
REMARK   53  A    between atoms: _125  and  _126
REMARK   54  A    between atoms: _125  and  _128
REMARK   55  A    between atoms: _128  and  _129
REMARK   56  A    between atoms: _131  and  _133
REMARK   57  A    between atoms: _133  and  _134
REMARK   58  A    between atoms: _133  and  _136
REMARK   59  A    between atoms: _136  and  _137
REMARK   60  A    between atoms: _137  and  _256
REMARK   61  A    between atoms: _138  and  _140
REMARK   62  A    between atoms: _140  and  _141
REMARK   63  A    between atoms: _140  and  _143
REMARK   64  A    between atoms: _143  and  _144
REMARK   65  A    between atoms: _144  and  _145
REMARK   66  A    between atoms: _150  and  _152
REMARK   67  A    between atoms: _152  and  _153
REMARK   68  A    between atoms: _155  and  _157
REMARK   69  A    between atoms: _157  and  _158
REMARK   70  A    between atoms: _157  and  _160
REMARK   71  A    between atoms: _160  and  _161
REMARK   72  A    between atoms: _164  and  _166
REMARK   73  A    between atoms: _166  and  _167
REMARK   74  A    between atoms: _166  and  _169
REMARK   75  A    between atoms: _169  and  _170
REMARK   76  A    between atoms: _172  and  _174
REMARK   77  A    between atoms: _174  and  _175
REMARK   78  A    between atoms: _177  and  _179
REMARK   79  A    between atoms: _179  and  _180
REMARK   80  A    between atoms: _182  and  _184
REMARK   81  A    between atoms: _184  and  _185
REMARK   82  A    between atoms: _184  and  _187
REMARK   83  A    between atoms: _187  and  _188
REMARK   84  A    between atoms: _191  and  _193
REMARK   85  A    between atoms: _193  and  _194
REMARK   86  A    between atoms: _193  and  _196
REMARK   87  A    between atoms: _199  and  _201
REMARK   88  A    between atoms: _201  and  _202
REMARK   89  A    between atoms: _201  and  _204
REMARK   90  A    between atoms: _204  and  _205
REMARK   91  A    between atoms: _207  and  _209
REMARK   92  A    between atoms: _209  and  _210
REMARK   93  A    between atoms: _209  and  _212
REMARK   94  A    between atoms: _212  and  _213
REMARK   95  A    between atoms: _223  and  _225
REMARK   96  A    between atoms: _225  and  _226
REMARK   97  A    between atoms: _228  and  _230
REMARK   98  A    between atoms: _230  and  _231
REMARK   99  A    between atoms: _230  and  _233
REMARK  100  A    between atoms: _233  and  _234
REMARK  101  A    between atoms: _234  and  _235
REMARK  102  A    between atoms: _235  and  _236
REMARK  103  A    between atoms: _245  and  _247
REMARK  104  A    between atoms: _247  and  _248
REMARK  105  A    between atoms: _250  and  _252
REMARK  106  A    between atoms: _252  and  _253
REMARK  107  A    between atoms: _252  and  _255
REMARK  108  A    between atoms: _255  and  _256
REMARK  109  A    between atoms: _257  and  _259
REMARK  110  A    between atoms: _259  and  _260
REMARK  111  A    between atoms: _263  and  _265
REMARK  112  A    between atoms: _265  and  _266
REMARK  113  A    between atoms: _265  and  _268
REMARK  114  A    between atoms: _268  and  _269
REMARK  115  A    between atoms: _272  and  _274
REMARK  116  A    between atoms: _274  and  _275
REMARK  117  A    between atoms: _274  and  _277
REMARK  118  A    between atoms: _277  and  _278
REMARK  119  A    between atoms: _278  and  _279
REMARK  120  A    between atoms: _279  and  _280
REMARK  121  A    between atoms: _280  and  _281
REMARK  122  A    between atoms: _286  and  _287
REMARK  123  A    between atoms: _292  and  _294
REMARK  124  A    between atoms: _294  and  _295
REMARK  125  A    between atoms: _297  and  _299
REMARK  126  A    between atoms: _299  and  _300
REMARK  127  A    between atoms: _299  and  _302
REMARK  128  A    between atoms: _305  and  _307
REMARK  129  A    between atoms: _307  and  _308
REMARK  130  A    between atoms: _307  and  _310
REMARK  131  A    between atoms: _310  and  _311
REMARK  132  A    between atoms: _316  and  _317
REMARK                            x       y       z     vdW  Elec       q    Type
REMARK                         _______ _______ _______ _____ _____    ______ ____
ROOT
ATOM      1  O   HOH     1      34.655  12.582  26.384  0.00  0.00    +0.000 OA
ENDROOT
TORSDOF 0
REMARK  Name = ../refined-set-2016/1f5k/1f5k_pocket.pdb
REMARK  132 active torsions:
REMARK  status: ('A' for Active; 'I' for Inactive)
REMARK    1  A    between atoms: _1  and  _3
REMARK    2  A    between atoms: _3  and  _4
REMARK    3  A    between atoms: _3  and  _6
REMARK    4  A    between atoms: _6  and  _7
REMARK    5  A    between atoms: _10  and  _12
REMARK    6  A    between atoms: _12  and  _13
REMARK    7  A    between atoms: _12  and  _15
REMARK    8  A    between atoms: _15  and  _16
REMARK    9  A    between atoms: _21  and  _23
REMARK   10  A    between atoms: _23  and  _24
REMARK   11  A    between atoms: _23  and  _26
REMARK   12  A    between atoms: _26  and  _27
REMARK   13  A    between atoms: _32  and  _34
REMARK   14  A    between atoms: _34  and  _35
REMARK   15  A    between atoms: _34  and  _37
REMARK   16  A    between atoms: _37  and  _38
REMARK   17  A    between atoms: _41  and  _43
REMARK   18  A    between atoms: _43  and  _44
REMARK   19  A    between atoms: _43  and  _46
REMARK   20  A    between atoms: _46  and  _47
REMARK   21  A    between atoms: _50  and  _52
REMARK   22  A    between atoms: _52  and  _53
REMARK   23  A    between atoms: _52  and  _55
REMARK   24  A    between atoms: _55  and  _56
REMARK   25  A    between atoms: _56  and  _57
REMARK   26  A    between atoms: _57  and  _58
REMARK   27  A    between atoms: _58  and  _59
REMARK   28  A    between atoms: _63  and  _65
REMARK   29  A    between atoms: _65  and  _66
REMARK   30  A    between atoms: _65  and  _68
REMARK   31  A    between atoms: _68  and  _69
REMARK   32  A    between atoms: _71  and  _73
REMARK   33  A    between atoms: _73  and  _74
REMARK   34  A    between atoms: _73  and  _76
REMARK   35  A    between atoms: _79  and  _81
REMARK   36  A    between atoms: _81  and  _82
REMARK   37  A    between atoms: _81  and  _84
REMARK   38  A    between atoms: _84  and  _85
REMARK   39  A    between atoms: _90  and  _91
REMARK   40  A    between atoms: _93  and  _95
REMARK   41  A    between atoms: _95  and  _96
REMARK   42  A    between atoms: _99  and  _101
REMARK   43  A    between atoms: _101  and  _102
REMARK   44  A    between atoms: _105  and  _107
REMARK   45  A    between atoms: _107  and  _108
REMARK   46  A    between atoms: _107  and  _110
REMARK   47  A    between atoms: _110  and  _111
REMARK   48  A    between atoms: _114  and  _116
REMARK   49  A    between atoms: _116  and  _117
REMARK   50  A    between atoms: _116  and  _119
REMARK   51  A    between atoms: _119  and  _120
REMARK   52  A    between atoms: _123  and  _125
REMARK   53  A    between atoms: _125  and  _126
REMARK   54  A    between atoms: _125  and  _128
REMARK   55  A    between atoms: _128  and  _129
REMARK   56  A    between atoms: _131  and  _133
REMARK   57  A    between atoms: _133  and  _134
REMARK   58  A    between atoms: _133  and  _136
REMARK   59  A    between atoms: _136  and  _137
REMARK   60  A    between atoms: _137  and  _256
REMARK   61  A    between atoms: _138  and  _140
REMARK   62  A    between atoms: _140  and  _141
REMARK   63  A    between atoms: _140  and  _143
REMARK   64  A    between atoms: _143  and  _144
REMARK   65  A    between atoms: _144  and  _145
REMARK   66  A    between atoms: _150  and  _152
REMARK   67  A    between atoms: _152  and  _153
REMARK   68  A    between atoms: _155  and  _157
REMARK   69  A    between atoms: _157  and  _158
REMARK   70  A    between atoms: _157  and  _160
REMARK   71  A    between atoms: _160  and  _161
REMARK   72  A    between atoms: _164  and  _166
REMARK   73  A    between atoms: _166  and  _167
REMARK   74  A    between atoms: _166  and  _169
REMARK   75  A    between atoms: _169  and  _170
REMARK   76  A    between atoms: _172  and  _174
REMARK   77  A    between atoms: _174  and  _175
REMARK   78  A    between atoms: _177  and  _179
REMARK   79  A    between atoms: _179  and  _180
REMARK   80  A    between atoms: _182  and  _184
REMARK   81  A    between atoms: _184  and  _185
REMARK   82  A    between atoms: _184  and  _187
REMARK   83  A    between atoms: _187  and  _188
REMARK   84  A    between atoms: _191  and  _193
REMARK   85  A    between atoms: _193  and  _194
REMARK   86  A    between atoms: _193  and  _196
REMARK   87  A    between atoms: _199  and  _201
REMARK   88  A    between atoms: _201  and  _202
REMARK   89  A    between atoms: _201  and  _204
REMARK   90  A    between atoms: _204  and  _205
REMARK   91  A    between atoms: _207  and  _209
REMARK   92  A    between atoms: _209  and  _210
REMARK   93  A    between atoms: _209  and  _212
REMARK   94  A    between atoms: _212  and  _213
REMARK   95  A    between atoms: _223  and  _225
REMARK   96  A    between atoms: _225  and  _226
REMARK   97  A    between atoms: _228  and  _230
REMARK   98  A    between atoms: _230  and  _231
REMARK   99  A    between atoms: _230  and  _233
REMARK  100  A    between atoms: _233  and  _234
REMARK  101  A    between atoms: _234  and  _235
REMARK  102  A    between atoms: _235  and  _236
REMARK  103  A    between atoms: _245  and  _247
REMARK  104  A    between atoms: _247  and  _248
REMARK  105  A    between atoms: _250  and  _252
REMARK  106  A    between atoms: _252  and  _253
REMARK  107  A    between atoms: _252  and  _255
REMARK  108  A    between atoms: _255  and  _256
REMARK  109  A    between atoms: _257  and  _259
REMARK  110  A    between atoms: _259  and  _260
REMARK  111  A    between atoms: _263  and  _265
REMARK  112  A    between atoms: _265  and  _266
REMARK  113  A    between atoms: _265  and  _268
REMARK  114  A    between atoms: _268  and  _269
REMARK  115  A    between atoms: _272  and  _274
REMARK  116  A    between atoms: _274  and  _275
REMARK  117  A    between atoms: _274  and  _277
REMARK  118  A    between atoms: _277  and  _278
REMARK  119  A    between atoms: _278  and  _279
REMARK  120  A    between atoms: _279  and  _280
REMARK  121  A    between atoms: _280  and  _281
REMARK  122  A    between atoms: _286  and  _287
REMARK  123  A    between atoms: _292  and  _294
REMARK  124  A    between atoms: _294  and  _295
REMARK  125  A    between atoms: _297  and  _299
REMARK  126  A    between atoms: _299  and  _300
REMARK  127  A    between atoms: _299  and  _302
REMARK  128  A    between atoms: _305  and  _307
REMARK  129  A    between atoms: _307  and  _308
REMARK  130  A    between atoms: _307  and  _310
REMARK  131  A    between atoms: _310  and  _311
REMARK  132  A    between atoms: _316  and  _317
REMARK                            x       y       z     vdW  Elec       q    Type
REMARK                         _______ _______ _______ _____ _____    ______ ____
ROOT
ATOM      1  O   HOH     1      23.281  11.035  25.816  0.00  0.00    +0.000 OA
ENDROOT
TORSDOF 0
REMARK  Name = ../refined-set-2016/1f5k/1f5k_pocket.pdb
REMARK  132 active torsions:
REMARK  status: ('A' for Active; 'I' for Inactive)
REMARK    1  A    between atoms: _1  and  _3
REMARK    2  A    between atoms: _3  and  _4
REMARK    3  A    between atoms: _3  and  _6
REMARK    4  A    between atoms: _6  and  _7
REMARK    5  A    between atoms: _10  and  _12
REMARK    6  A    between atoms: _12  and  _13
REMARK    7  A    between atoms: _12  and  _15
REMARK    8  A    between atoms: _15  and  _16
REMARK    9  A    between atoms: _21  and  _23
REMARK   10  A    between atoms: _23  and  _24
REMARK   11  A    between atoms: _23  and  _26
REMARK   12  A    between atoms: _26  and  _27
REMARK   13  A    between atoms: _32  and  _34
REMARK   14  A    between atoms: _34  and  _35
REMARK   15  A    between atoms: _34  and  _37
REMARK   16  A    between atoms: _37  and  _38
REMARK   17  A    between atoms: _41  and  _43
REMARK   18  A    between atoms: _43  and  _44
REMARK   19  A    between atoms: _43  and  _46
REMARK   20  A    between atoms: _46  and  _47
REMARK   21  A    between atoms: _50  and  _52
REMARK   22  A    between atoms: _52  and  _53
REMARK   23  A    between atoms: _52  and  _55
REMARK   24  A    between atoms: _55  and  _56
REMARK   25  A    between atoms: _56  and  _57
REMARK   26  A    between atoms: _57  and  _58
REMARK   27  A    between atoms: _58  and  _59
REMARK   28  A    between atoms: _63  and  _65
REMARK   29  A    between atoms: _65  and  _66
REMARK   30  A    between atoms: _65  and  _68
REMARK   31  A    between atoms: _68  and  _69
REMARK   32  A    between atoms: _71  and  _73
REMARK   33  A    between atoms: _73  and  _74
REMARK   34  A    between atoms: _73  and  _76
REMARK   35  A    between atoms: _79  and  _81
REMARK   36  A    between atoms: _81  and  _82
REMARK   37  A    between atoms: _81  and  _84
REMARK   38  A    between atoms: _84  and  _85
REMARK   39  A    between atoms: _90  and  _91
REMARK   40  A    between atoms: _93  and  _95
REMARK   41  A    between atoms: _95  and  _96
REMARK   42  A    between atoms: _99  and  _101
REMARK   43  A    between atoms: _101  and  _102
REMARK   44  A    between atoms: _105  and  _107
REMARK   45  A    between atoms: _107  and  _108
REMARK   46  A    between atoms: _107  and  _110
REMARK   47  A    between atoms: _110  and  _111
REMARK   48  A    between atoms: _114  and  _116
REMARK   49  A    between atoms: _116  and  _117
REMARK   50  A    between atoms: _116  and  _119
REMARK   51  A    between atoms: _119  and  _120
REMARK   52  A    between atoms: _123  and  _125
REMARK   53  A    between atoms: _125  and  _126
REMARK   54  A    between atoms: _125  and  _128
REMARK   55  A    between atoms: _128  and  _129
REMARK   56  A    between atoms: _131  and  _133
REMARK   57  A    between atoms: _133  and  _134
REMARK   58  A    between atoms: _133  and  _136
REMARK   59  A    between atoms: _136  and  _137
REMARK   60  A    between atoms: _137  and  _256
REMARK   61  A    between atoms: _138  and  _140
REMARK   62  A    between atoms: _140  and  _141
REMARK   63  A    between atoms: _140  and  _143
REMARK   64  A    between atoms: _143  and  _144
REMARK   65  A    between atoms: _144  and  _145
REMARK   66  A    between atoms: _150  and  _152
REMARK   67  A    between atoms: _152  and  _153
REMARK   68  A    between atoms: _155  and  _157
REMARK   69  A    between atoms: _157  and  _158
REMARK   70  A    between atoms: _157  and  _160
REMARK   71  A    between atoms: _160  and  _161
REMARK   72  A    between atoms: _164  and  _166
REMARK   73  A    between atoms: _166  and  _167
REMARK   74  A    between atoms: _166  and  _169
REMARK   75  A    between atoms: _169  and  _170
REMARK   76  A    between atoms: _172  and  _174
REMARK   77  A    between atoms: _174  and  _175
REMARK   78  A    between atoms: _177  and  _179
REMARK   79  A    between atoms: _179  and  _180
REMARK   80  A    between atoms: _182  and  _184
REMARK   81  A    between atoms: _184  and  _185
REMARK   82  A    between atoms: _184  and  _187
REMARK   83  A    between atoms: _187  and  _188
REMARK   84  A    between atoms: _191  and  _193
REMARK   85  A    between atoms: _193  and  _194
REMARK   86  A    between atoms: _193  and  _196
REMARK   87  A    between atoms: _199  and  _201
REMARK   88  A    between atoms: _201  and  _202
REMARK   89  A    between atoms: _201  and  _204
REMARK   90  A    between atoms: _204  and  _205
REMARK   91  A    between atoms: _207  and  _209
REMARK   92  A    between atoms: _209  and  _210
REMARK   93  A    between atoms: _209  and  _212
REMARK   94  A    between atoms: _212  and  _213
REMARK   95  A    between atoms: _223  and  _225
REMARK   96  A    between atoms: _225  and  _226
REMARK   97  A    between atoms: _228  and  _230
REMARK   98  A    between atoms: _230  and  _231
REMARK   99  A    between atoms: _230  and  _233
REMARK  100  A    between atoms: _233  and  _234
REMARK  101  A    between atoms: _234  and  _235
REMARK  102  A    between atoms: _235  and  _236
REMARK  103  A    between atoms: _245  and  _247
REMARK  104  A    between atoms: _247  and  _248
REMARK  105  A    between atoms: _250  and  _252
REMARK  106  A    between atoms: _252  and  _253
REMARK  107  A    between atoms: _252  and  _255
REMARK  108  A    between atoms: _255  and  _256
REMARK  109  A    between atoms: _257  and  _259
REMARK  110  A    between atoms: _259  and  _260
REMARK  111  A    between atoms: _263  and  _265
REMARK  112  A    between atoms: _265  and  _266
REMARK  113  A    between atoms: _265  and  _268
REMARK  114  A    between atoms: _268  and  _269
REMARK  115  A    between atoms: _272  and  _274
REMARK  116  A    between atoms: _274  and  _275
REMARK  117  A    between atoms: _274  and  _277
REMARK  118  A    between atoms: _277  and  _278
REMARK  119  A    between atoms: _278  and  _279
REMARK  120  A    between atoms: _279  and  _280
REMARK  121  A    between atoms: _280  and  _281
REMARK  122  A    between atoms: _286  and  _287
REMARK  123  A    between atoms: _292  and  _294
REMARK  124  A    between atoms: _294  and  _295
REMARK  125  A    between atoms: _297  and  _299
REMARK  126  A    between atoms: _299  and  _300
REMARK  127  A    between atoms: _299  and  _302
REMARK  128  A    between atoms: _305  and  _307
REMARK  129  A    between atoms: _307  and  _308
REMARK  130  A    between atoms: _307  and  _310
REMARK  131  A    between atoms: _310  and  _311
REMARK  132  A    between atoms: _316  and  _317
REMARK                            x       y       z     vdW  Elec       q    Type
REMARK                         _______ _______ _______ _____ _____    ______ ____
ROOT
ATOM      1  O   HOH     1      28.415   8.939  31.491  0.00  0.00    +0.000 OA
ENDROOT
TORSDOF 0
REMARK  Name = ../refined-set-2016/1f5k/1f5k_pocket.pdb
REMARK  132 active torsions:
REMARK  status: ('A' for Active; 'I' for Inactive)
REMARK    1  A    between atoms: _1  and  _3
REMARK    2  A    between atoms: _3  and  _4
REMARK    3  A    between atoms: _3  and  _6
REMARK    4  A    between atoms: _6  and  _7
REMARK    5  A    between atoms: _10  and  _12
REMARK    6  A    between atoms: _12  and  _13
REMARK    7  A    between atoms: _12  and  _15
REMARK    8  A    between atoms: _15  and  _16
REMARK    9  A    between atoms: _21  and  _23
REMARK   10  A    between atoms: _23  and  _24
REMARK   11  A    between atoms: _23  and  _26
REMARK   12  A    between atoms: _26  and  _27
REMARK   13  A    between atoms: _32  and  _34
REMARK   14  A    between atoms: _34  and  _35
REMARK   15  A    between atoms: _34  and  _37
REMARK   16  A    between atoms: _37  and  _38
REMARK   17  A    between atoms: _41  and  _43
REMARK   18  A    between atoms: _43  and  _44
REMARK   19  A    between atoms: _43  and  _46
REMARK   20  A    between atoms: _46  and  _47
REMARK   21  A    between atoms: _50  and  _52
REMARK   22  A    between atoms: _52  and  _53
REMARK   23  A    between atoms: _52  and  _55
REMARK   24  A    between atoms: _55  and  _56
REMARK   25  A    between atoms: _56  and  _57
REMARK   26  A    between atoms: _57  and  _58
REMARK   27  A    between atoms: _58  and  _59
REMARK   28  A    between atoms: _63  and  _65
REMARK   29  A    between atoms: _65  and  _66
REMARK   30  A    between atoms: _65  and  _68
REMARK   31  A    between atoms: _68  and  _69
REMARK   32  A    between atoms: _71  and  _73
REMARK   33  A    between atoms: _73  and  _74
REMARK   34  A    between atoms: _73  and  _76
REMARK   35  A    between atoms: _79  and  _81
REMARK   36  A    between atoms: _81  and  _82
REMARK   37  A    between atoms: _81  and  _84
REMARK   38  A    between atoms: _84  and  _85
REMARK   39  A    between atoms: _90  and  _91
REMARK   40  A    between atoms: _93  and  _95
REMARK   41  A    between atoms: _95  and  _96
REMARK   42  A    between atoms: _99  and  _101
REMARK   43  A    between atoms: _101  and  _102
REMARK   44  A    between atoms: _105  and  _107
REMARK   45  A    between atoms: _107  and  _108
REMARK   46  A    between atoms: _107  and  _110
REMARK   47  A    between atoms: _110  and  _111
REMARK   48  A    between atoms: _114  and  _116
REMARK   49  A    between atoms: _116  and  _117
REMARK   50  A    between atoms: _116  and  _119
REMARK   51  A    between atoms: _119  and  _120
REMARK   52  A    between atoms: _123  and  _125
REMARK   53  A    between atoms: _125  and  _126
REMARK   54  A    between atoms: _125  and  _128
REMARK   55  A    between atoms: _128  and  _129
REMARK   56  A    between atoms: _131  and  _133
REMARK   57  A    between atoms: _133  and  _134
REMARK   58  A    between atoms: _133  and  _136
REMARK   59  A    between atoms: _136  and  _137
REMARK   60  A    between atoms: _137  and  _256
REMARK   61  A    between atoms: _138  and  _140
REMARK   62  A    between atoms: _140  and  _141
REMARK   63  A    between atoms: _140  and  _143
REMARK   64  A    between atoms: _143  and  _144
REMARK   65  A    between atoms: _144  and  _145
REMARK   66  A    between atoms: _150  and  _152
REMARK   67  A    between atoms: _152  and  _153
REMARK   68  A    between atoms: _155  and  _157
REMARK   69  A    between atoms: _157  and  _158
REMARK   70  A    between atoms: _157  and  _160
REMARK   71  A    between atoms: _160  and  _161
REMARK   72  A    between atoms: _164  and  _166
REMARK   73  A    between atoms: _166  and  _167
REMARK   74  A    between atoms: _166  and  _169
REMARK   75  A    between atoms: _169  and  _170
REMARK   76  A    between atoms: _172  and  _174
REMARK   77  A    between atoms: _174  and  _175
REMARK   78  A    between atoms: _177  and  _179
REMARK   79  A    between atoms: _179  and  _180
REMARK   80  A    between atoms: _182  and  _184
REMARK   81  A    between atoms: _184  and  _185
REMARK   82  A    between atoms: _184  and  _187
REMARK   83  A    between atoms: _187  and  _188
REMARK   84  A    between atoms: _191  and  _193
REMARK   85  A    between atoms: _193  and  _194
REMARK   86  A    between atoms: _193  and  _196
REMARK   87  A    between atoms: _199  and  _201
REMARK   88  A    between atoms: _201  and  _202
REMARK   89  A    between atoms: _201  and  _204
REMARK   90  A    between atoms: _204  and  _205
REMARK   91  A    between atoms: _207  and  _209
REMARK   92  A    between atoms: _209  and  _210
REMARK   93  A    between atoms: _209  and  _212
REMARK   94  A    between atoms: _212  and  _213
REMARK   95  A    between atoms: _223  and  _225
REMARK   96  A    between atoms: _225  and  _226
REMARK   97  A    between atoms: _228  and  _230
REMARK   98  A    between atoms: _230  and  _231
REMARK   99  A    between atoms: _230  and  _233
REMARK  100  A    between atoms: _233  and  _234
REMARK  101  A    between atoms: _234  and  _235
REMARK  102  A    between atoms: _235  and  _236
REMARK  103  A    between atoms: _245  and  _247
REMARK  104  A    between atoms: _247  and  _248
REMARK  105  A    between atoms: _250  and  _252
REMARK  106  A    between atoms: _252  and  _253
REMARK  107  A    between atoms: _252  and  _255
REMARK  108  A    between atoms: _255  and  _256
REMARK  109  A    between atoms: _257  and  _259
REMARK  110  A    between atoms: _259  and  _260
REMARK  111  A    between atoms: _263  and  _265
REMARK  112  A    between atoms: _265  and  _266
REMARK  113  A    between atoms: _265  and  _268
REMARK  114  A    between atoms: _268  and  _269
REMARK  115  A    between atoms: _272  and  _274
REMARK  116  A    between atoms: _274  and  _275
REMARK  117  A    between atoms: _274  and  _277
REMARK  118  A    between atoms: _277  and  _278
REMARK  119  A    between atoms: _278  and  _279
REMARK  120  A    between atoms: _279  and  _280
REMARK  121  A    between atoms: _280  and  _281
REMARK  122  A    between atoms: _286  and  _287
REMARK  123  A    between atoms: _292  and  _294
REMARK  124  A    between atoms: _294  and  _295
REMARK  125  A    between atoms: _297  and  _299
REMARK  126  A    between atoms: _299  and  _300
REMARK  127  A    between atoms: _299  and  _302
REMARK  128  A    between atoms: _305  and  _307
REMARK  129  A    between atoms: _307  and  _308
REMARK  130  A    between atoms: _307  and  _310
REMARK  131  A    between atoms: _310  and  _311
REMARK  132  A    between atoms: _316  and  _317
REMARK                            x       y       z     vdW  Elec       q    Type
REMARK                         _______ _______ _______ _____ _____    ______ ____
ROOT
ATOM      1  O   HOH     1      29.857  10.659  25.667  0.00  0.00    +0.000 OA
ENDROOT
TORSDOF 0
REMARK  Name = ../refined-set-2016/1f5k/1f5k_pocket.pdb
REMARK  132 active torsions:
REMARK  status: ('A' for Active; 'I' for Inactive)
REMARK    1  A    between atoms: _1  and  _3
REMARK    2  A    between atoms: _3  and  _4
REMARK    3  A    between atoms: _3  and  _6
REMARK    4  A    between atoms: _6  and  _7
REMARK    5  A    between atoms: _10  and  _12
REMARK    6  A    between atoms: _12  and  _13
REMARK    7  A    between atoms: _12  and  _15
REMARK    8  A    between atoms: _15  and  _16
REMARK    9  A    between atoms: _21  and  _23
REMARK   10  A    between atoms: _23  and  _24
REMARK   11  A    between atoms: _23  and  _26
REMARK   12  A    between atoms: _26  and  _27
REMARK   13  A    between atoms: _32  and  _34
REMARK   14  A    between atoms: _34  and  _35
REMARK   15  A    between atoms: _34  and  _37
REMARK   16  A    between atoms: _37  and  _38
REMARK   17  A    between atoms: _41  and  _43
REMARK   18  A    between atoms: _43  and  _44
REMARK   19  A    between atoms: _43  and  _46
REMARK   20  A    between atoms: _46  and  _47
REMARK   21  A    between atoms: _50  and  _52
REMARK   22  A    between atoms: _52  and  _53
REMARK   23  A    between atoms: _52  and  _55
REMARK   24  A    between atoms: _55  and  _56
REMARK   25  A    between atoms: _56  and  _57
REMARK   26  A    between atoms: _57  and  _58
REMARK   27  A    between atoms: _58  and  _59
REMARK   28  A    between atoms: _63  and  _65
REMARK   29  A    between atoms: _65  and  _66
REMARK   30  A    between atoms: _65  and  _68
REMARK   31  A    between atoms: _68  and  _69
REMARK   32  A    between atoms: _71  and  _73
REMARK   33  A    between atoms: _73  and  _74
REMARK   34  A    between atoms: _73  and  _76
REMARK   35  A    between atoms: _79  and  _81
REMARK   36  A    between atoms: _81  and  _82
REMARK   37  A    between atoms: _81  and  _84
REMARK   38  A    between atoms: _84  and  _85
REMARK   39  A    between atoms: _90  and  _91
REMARK   40  A    between atoms: _93  and  _95
REMARK   41  A    between atoms: _95  and  _96
REMARK   42  A    between atoms: _99  and  _101
REMARK   43  A    between atoms: _101  and  _102
REMARK   44  A    between atoms: _105  and  _107
REMARK   45  A    between atoms: _107  and  _108
REMARK   46  A    between atoms: _107  and  _110
REMARK   47  A    between atoms: _110  and  _111
REMARK   48  A    between atoms: _114  and  _116
REMARK   49  A    between atoms: _116  and  _117
REMARK   50  A    between atoms: _116  and  _119
REMARK   51  A    between atoms: _119  and  _120
REMARK   52  A    between atoms: _123  and  _125
REMARK   53  A    between atoms: _125  and  _126
REMARK   54  A    between atoms: _125  and  _128
REMARK   55  A    between atoms: _128  and  _129
REMARK   56  A    between atoms: _131  and  _133
REMARK   57  A    between atoms: _133  and  _134
REMARK   58  A    between atoms: _133  and  _136
REMARK   59  A    between atoms: _136  and  _137
REMARK   60  A    between atoms: _137  and  _256
REMARK   61  A    between atoms: _138  and  _140
REMARK   62  A    between atoms: _140  and  _141
REMARK   63  A    between atoms: _140  and  _143
REMARK   64  A    between atoms: _143  and  _144
REMARK   65  A    between atoms: _144  and  _145
REMARK   66  A    between atoms: _150  and  _152
REMARK   67  A    between atoms: _152  and  _153
REMARK   68  A    between atoms: _155  and  _157
REMARK   69  A    between atoms: _157  and  _158
REMARK   70  A    between atoms: _157  and  _160
REMARK   71  A    between atoms: _160  and  _161
REMARK   72  A    between atoms: _164  and  _166
REMARK   73  A    between atoms: _166  and  _167
REMARK   74  A    between atoms: _166  and  _169
REMARK   75  A    between atoms: _169  and  _170
REMARK   76  A    between atoms: _172  and  _174
REMARK   77  A    between atoms: _174  and  _175
REMARK   78  A    between atoms: _177  and  _179
REMARK   79  A    between atoms: _179  and  _180
REMARK   80  A    between atoms: _182  and  _184
REMARK   81  A    between atoms: _184  and  _185
REMARK   82  A    between atoms: _184  and  _187
REMARK   83  A    between atoms: _187  and  _188
REMARK   84  A    between atoms: _191  and  _193
REMARK   85  A    between atoms: _193  and  _194
REMARK   86  A    between atoms: _193  and  _196
REMARK   87  A    between atoms: _199  and  _201
REMARK   88  A    between atoms: _201  and  _202
REMARK   89  A    between atoms: _201  and  _204
REMARK   90  A    between atoms: _204  and  _205
REMARK   91  A    between atoms: _207  and  _209
REMARK   92  A    between atoms: _209  and  _210
REMARK   93  A    between atoms: _209  and  _212
REMARK   94  A    between atoms: _212  and  _213
REMARK   95  A    between atoms: _223  and  _225
REMARK   96  A    between atoms: _225  and  _226
REMARK   97  A    between atoms: _228  and  _230
REMARK   98  A    between atoms: _230  and  _231
REMARK   99  A    between atoms: _230  and  _233
REMARK  100  A    between atoms: _233  and  _234
REMARK  101  A    between atoms: _234  and  _235
REMARK  102  A    between atoms: _235  and  _236
REMARK  103  A    between atoms: _245  and  _247
REMARK  104  A    between atoms: _247  and  _248
REMARK  105  A    between atoms: _250  and  _252
REMARK  106  A    between atoms: _252  and  _253
REMARK  107  A    between atoms: _252  and  _255
REMARK  108  A    between atoms: _255  and  _256
REMARK  109  A    between atoms: _257  and  _259
REMARK  110  A    between atoms: _259  and  _260
REMARK  111  A    between atoms: _263  and  _265
REMARK  112  A    between atoms: _265  and  _266
REMARK  113  A    between atoms: _265  and  _268
REMARK  114  A    between atoms: _268  and  _269
REMARK  115  A    between atoms: _272  and  _274
REMARK  116  A    between atoms: _274  and  _275
REMARK  117  A    between atoms: _274  and  _277
REMARK  118  A    between atoms: _277  and  _278
REMARK  119  A    between atoms: _278  and  _279
REMARK  120  A    between atoms: _279  and  _280
REMARK  121  A    between atoms: _280  and  _281
REMARK  122  A    between atoms: _286  and  _287
REMARK  123  A    between atoms: _292  and  _294
REMARK  124  A    between atoms: _294  and  _295
REMARK  125  A    between atoms: _297  and  _299
REMARK  126  A    between atoms: _299  and  _300
REMARK  127  A    between atoms: _299  and  _302
REMARK  128  A    between atoms: _305  and  _307
REMARK  129  A    between atoms: _307  and  _308
REMARK  130  A    between atoms: _307  and  _310
REMARK  131  A    between atoms: _310  and  _311
REMARK  132  A    between atoms: _316  and  _317
REMARK                            x       y       z     vdW  Elec       q    Type
REMARK                         _______ _______ _______ _____ _____    ______ ____
ROOT
ATOM      1  O   HOH     1      36.619   8.728  21.838  0.00  0.00    +0.000 OA
ENDROOT
TORSDOF 0
