REMARK  Name = ../refined-set-2016/1v2u/1v2u_pocket.pdb
REMARK  125 active torsions:
REMARK  status: ('A' for Active; 'I' for Inactive)
REMARK    1  A    between atoms: _1  and  _5
REMARK    2  A    between atoms: _5  and  _6
REMARK    3  A    between atoms: _5  and  _8
REMARK    4  A    between atoms: _8  and  _9
REMARK    5  A    between atoms: _12  and  _14
REMARK    6  A    between atoms: _14  and  _15
REMARK    7  A    between atoms: _14  and  _17
REMARK    8  A    between atoms: _20  and  _22
REMARK    9  A    between atoms: _22  and  _23
REMARK   10  A    between atoms: _22  and  _25
REMARK   11  A    between atoms: _25  and  _26
REMARK   12  A    between atoms: _31  and  _33
REMARK   13  A    between atoms: _33  and  _34
REMARK   14  A    between atoms: _33  and  _36
REMARK   15  A    between atoms: _36  and  _37
REMARK   16  A    between atoms: _40  and  _42
REMARK   17  A    between atoms: _42  and  _43
REMARK   18  A    between atoms: _42  and  _45
REMARK   19  A    between atoms: _45  and  _46
REMARK   20  A    between atoms: _49  and  _51
REMARK   21  A    between atoms: _51  and  _52
REMARK   22  A    between atoms: _51  and  _54
REMARK   23  A    between atoms: _54  and  _55
REMARK   24  A    between atoms: _58  and  _60
REMARK   25  A    between atoms: _60  and  _61
REMARK   26  A    between atoms: _60  and  _63
REMARK   27  A    between atoms: _63  and  _64
REMARK   28  A    between atoms: _69  and  _71
REMARK   29  A    between atoms: _71  and  _72
REMARK   30  A    between atoms: _71  and  _74
REMARK   31  A    between atoms: _74  and  _75
REMARK   32  A    between atoms: _80  and  _81
REMARK   33  A    between atoms: _83  and  _85
REMARK   34  A    between atoms: _85  and  _86
REMARK   35  A    between atoms: _89  and  _91
REMARK   36  A    between atoms: _91  and  _92
REMARK   37  A    between atoms: _91  and  _94
REMARK   38  A    between atoms: _94  and  _95
REMARK   39  A    between atoms: _95  and  _96
REMARK   40  A    between atoms: _96  and  _97
REMARK   41  A    between atoms: _97  and  _98
REMARK   42  A    between atoms: _102  and  _104
REMARK   43  A    between atoms: _104  and  _105
REMARK   44  A    between atoms: _104  and  _107
REMARK   45  A    between atoms: _107  and  _108
REMARK   46  A    between atoms: _111  and  _113
REMARK   47  A    between atoms: _113  and  _114
REMARK   48  A    between atoms: _113  and  _116
REMARK   49  A    between atoms: _116  and  _117
REMARK   50  A    between atoms: _119  and  _121
REMARK   51  A    between atoms: _121  and  _122
REMARK   52  A    between atoms: _121  and  _124
REMARK   53  A    between atoms: _124  and  _125
REMARK   54  A    between atoms: _125  and  _235
REMARK   55  A    between atoms: _126  and  _128
REMARK   56  A    between atoms: _128  and  _129
REMARK   57  A    between atoms: _128  and  _131
REMARK   58  A    between atoms: _131  and  _132
REMARK   59  A    between atoms: _132  and  _133
REMARK   60  A    between atoms: _138  and  _140
REMARK   61  A    between atoms: _140  and  _141
REMARK   62  A    between atoms: _143  and  _145
REMARK   63  A    between atoms: _145  and  _146
REMARK   64  A    between atoms: _145  and  _148
REMARK   65  A    between atoms: _148  and  _149
REMARK   66  A    between atoms: _152  and  _154
REMARK   67  A    between atoms: _154  and  _155
REMARK   68  A    between atoms: _154  and  _157
REMARK   69  A    between atoms: _157  and  _158
REMARK   70  A    between atoms: _160  and  _162
REMARK   71  A    between atoms: _162  and  _163
REMARK   72  A    between atoms: _165  and  _167
REMARK   73  A    between atoms: _167  and  _168
REMARK   74  A    between atoms: _170  and  _172
REMARK   75  A    between atoms: _172  and  _173
REMARK   76  A    between atoms: _172  and  _175
REMARK   77  A    between atoms: _175  and  _176
REMARK   78  A    between atoms: _179  and  _181
REMARK   79  A    between atoms: _181  and  _182
REMARK   80  A    between atoms: _181  and  _184
REMARK   81  A    between atoms: _187  and  _189
REMARK   82  A    between atoms: _189  and  _190
REMARK   83  A    between atoms: _189  and  _192
REMARK   84  A    between atoms: _192  and  _193
REMARK   85  A    between atoms: _195  and  _197
REMARK   86  A    between atoms: _197  and  _198
REMARK   87  A    between atoms: _197  and  _200
REMARK   88  A    between atoms: _200  and  _201
REMARK   89  A    between atoms: _211  and  _213
REMARK   90  A    between atoms: _213  and  _214
REMARK   91  A    between atoms: _216  and  _218
REMARK   92  A    between atoms: _218  and  _219
REMARK   93  A    between atoms: _218  and  _221
REMARK   94  A    between atoms: _221  and  _222
REMARK   95  A    between atoms: _224  and  _226
REMARK   96  A    between atoms: _226  and  _227
REMARK   97  A    between atoms: _229  and  _231
REMARK   98  A    between atoms: _231  and  _232
REMARK   99  A    between atoms: _231  and  _234
REMARK  100  A    between atoms: _234  and  _235
REMARK  101  A    between atoms: _236  and  _238
REMARK  102  A    between atoms: _238  and  _239
REMARK  103  A    between atoms: _242  and  _244
REMARK  104  A    between atoms: _244  and  _245
REMARK  105  A    between atoms: _244  and  _247
REMARK  106  A    between atoms: _247  and  _248
REMARK  107  A    between atoms: _248  and  _249
REMARK  108  A    between atoms: _254  and  _256
REMARK  109  A    between atoms: _256  and  _257
REMARK  110  A    between atoms: _256  and  _259
REMARK  111  A    between atoms: _259  and  _260
REMARK  112  A    between atoms: _260  and  _261
REMARK  113  A    between atoms: _261  and  _262
REMARK  114  A    between atoms: _262  and  _263
REMARK  115  A    between atoms: _268  and  _269
REMARK  116  A    between atoms: _274  and  _276
REMARK  117  A    between atoms: _276  and  _277
REMARK  118  A    between atoms: _279  and  _281
REMARK  119  A    between atoms: _281  and  _282
REMARK  120  A    between atoms: _281  and  _284
REMARK  121  A    between atoms: _287  and  _289
REMARK  122  A    between atoms: _289  and  _290
REMARK  123  A    between atoms: _289  and  _292
REMARK  124  A    between atoms: _292  and  _293
REMARK  125  A    between atoms: _298  and  _299
REMARK                            x       y       z     vdW  Elec       q    Type
REMARK                         _______ _______ _______ _____ _____    ______ ____
ROOT
ATOM      1  C   ILE A   1      61.047  62.232 -31.635  0.00  0.00    +0.202 C 
ATOM      2  N   VAL A   2      60.825  62.214 -30.325  0.00  0.00    -0.301 N 
ATOM      3  H   VAL A   2      59.847  62.155 -29.977  0.00  0.00    +0.150 HD
ATOM      4  O   ILE A   1      62.177  62.326 -32.129  0.00  0.00    -0.277 OA
ENDROOT
BRANCH   1   5
ATOM      5  CA  ILE A   1      59.813  62.130 -32.525  0.00  0.00    +0.013 C 
BRANCH   5   6
ATOM      6  N   ILE A   1      59.775  63.273 -33.478  0.00  0.00    +0.387 N 
ATOM      7  H1  ILE A   1      59.740  64.166 -32.946  0.00  0.00    -0.089 HD
ATOM      8  H2  ILE A   1      60.628  63.256 -34.072  0.00  0.00    -0.089 HD
ATOM      9  H3  ILE A   1      58.930  63.193 -34.079  0.00  0.00    -0.089 HD
ENDBRANCH   5   6
BRANCH   5  10
ATOM     10  CB  ILE A   1      59.888  60.774 -33.266  0.00  0.00    -0.011 C 
ATOM     11  CG2 ILE A   1      59.928  59.630 -32.251  0.00  0.00    -0.002 C 
BRANCH  10  12
ATOM     12  CG1 ILE A   1      58.702  60.620 -34.228  0.00  0.00    -0.002 C 
ATOM     13  CD1 ILE A   1      57.354  60.482 -33.548  0.00  0.00    -0.000 C 
ENDBRANCH  10  12
ENDBRANCH   5  10
ENDBRANCH   1   5
BRANCH   2  14
ATOM     14  CA  VAL A   2      61.918  62.275 -29.365  0.00  0.00    +0.137 C 
BRANCH  14  15
ATOM     15  CB  VAL A   2      61.611  63.256 -28.210  0.00  0.00    +0.026 C 
ATOM     16  CG2 VAL A   2      62.775  63.273 -27.223  0.00  0.00    +0.002 C 
ATOM     17  CG1 VAL A   2      61.355  64.651 -28.764  0.00  0.00    +0.002 C 
ENDBRANCH  14  15
BRANCH  14  18
ATOM     18  C   VAL A   2      62.132  60.883 -28.782  0.00  0.00    +0.227 C 
ATOM     19  O   VAL A   2      61.174  60.214 -28.389  0.00  0.00    -0.286 OA
ENDBRANCH  14  18
ENDBRANCH   2  14
TORSDOF 7
REMARK  Name = ../refined-set-2016/1v2u/1v2u_pocket.pdb
REMARK  125 active torsions:
REMARK  status: ('A' for Active; 'I' for Inactive)
REMARK    1  A    between atoms: _1  and  _5
REMARK    2  A    between atoms: _5  and  _6
REMARK    3  A    between atoms: _5  and  _8
REMARK    4  A    between atoms: _8  and  _9
REMARK    5  A    between atoms: _12  and  _14
REMARK    6  A    between atoms: _14  and  _15
REMARK    7  A    between atoms: _14  and  _17
REMARK    8  A    between atoms: _20  and  _22
REMARK    9  A    between atoms: _22  and  _23
REMARK   10  A    between atoms: _22  and  _25
REMARK   11  A    between atoms: _25  and  _26
REMARK   12  A    between atoms: _31  and  _33
REMARK   13  A    between atoms: _33  and  _34
REMARK   14  A    between atoms: _33  and  _36
REMARK   15  A    between atoms: _36  and  _37
REMARK   16  A    between atoms: _40  and  _42
REMARK   17  A    between atoms: _42  and  _43
REMARK   18  A    between atoms: _42  and  _45
REMARK   19  A    between atoms: _45  and  _46
REMARK   20  A    between atoms: _49  and  _51
REMARK   21  A    between atoms: _51  and  _52
REMARK   22  A    between atoms: _51  and  _54
REMARK   23  A    between atoms: _54  and  _55
REMARK   24  A    between atoms: _58  and  _60
REMARK   25  A    between atoms: _60  and  _61
REMARK   26  A    between atoms: _60  and  _63
REMARK   27  A    between atoms: _63  and  _64
REMARK   28  A    between atoms: _69  and  _71
REMARK   29  A    between atoms: _71  and  _72
REMARK   30  A    between atoms: _71  and  _74
REMARK   31  A    between atoms: _74  and  _75
REMARK   32  A    between atoms: _80  and  _81
REMARK   33  A    between atoms: _83  and  _85
REMARK   34  A    between atoms: _85  and  _86
REMARK   35  A    between atoms: _89  and  _91
REMARK   36  A    between atoms: _91  and  _92
REMARK   37  A    between atoms: _91  and  _94
REMARK   38  A    between atoms: _94  and  _95
REMARK   39  A    between atoms: _95  and  _96
REMARK   40  A    between atoms: _96  and  _97
REMARK   41  A    between atoms: _97  and  _98
REMARK   42  A    between atoms: _102  and  _104
REMARK   43  A    between atoms: _104  and  _105
REMARK   44  A    between atoms: _104  and  _107
REMARK   45  A    between atoms: _107  and  _108
REMARK   46  A    between atoms: _111  and  _113
REMARK   47  A    between atoms: _113  and  _114
REMARK   48  A    between atoms: _113  and  _116
REMARK   49  A    between atoms: _116  and  _117
REMARK   50  A    between atoms: _119  and  _121
REMARK   51  A    between atoms: _121  and  _122
REMARK   52  A    between atoms: _121  and  _124
REMARK   53  A    between atoms: _124  and  _125
REMARK   54  A    between atoms: _125  and  _235
REMARK   55  A    between atoms: _126  and  _128
REMARK   56  A    between atoms: _128  and  _129
REMARK   57  A    between atoms: _128  and  _131
REMARK   58  A    between atoms: _131  and  _132
REMARK   59  A    between atoms: _132  and  _133
REMARK   60  A    between atoms: _138  and  _140
REMARK   61  A    between atoms: _140  and  _141
REMARK   62  A    between atoms: _143  and  _145
REMARK   63  A    between atoms: _145  and  _146
REMARK   64  A    between atoms: _145  and  _148
REMARK   65  A    between atoms: _148  and  _149
REMARK   66  A    between atoms: _152  and  _154
REMARK   67  A    between atoms: _154  and  _155
REMARK   68  A    between atoms: _154  and  _157
REMARK   69  A    between atoms: _157  and  _158
REMARK   70  A    between atoms: _160  and  _162
REMARK   71  A    between atoms: _162  and  _163
REMARK   72  A    between atoms: _165  and  _167
REMARK   73  A    between atoms: _167  and  _168
REMARK   74  A    between atoms: _170  and  _172
REMARK   75  A    between atoms: _172  and  _173
REMARK   76  A    between atoms: _172  and  _175
REMARK   77  A    between atoms: _175  and  _176
REMARK   78  A    between atoms: _179  and  _181
REMARK   79  A    between atoms: _181  and  _182
REMARK   80  A    between atoms: _181  and  _184
REMARK   81  A    between atoms: _187  and  _189
REMARK   82  A    between atoms: _189  and  _190
REMARK   83  A    between atoms: _189  and  _192
REMARK   84  A    between atoms: _192  and  _193
REMARK   85  A    between atoms: _195  and  _197
REMARK   86  A    between atoms: _197  and  _198
REMARK   87  A    between atoms: _197  and  _200
REMARK   88  A    between atoms: _200  and  _201
REMARK   89  A    between atoms: _211  and  _213
REMARK   90  A    between atoms: _213  and  _214
REMARK   91  A    between atoms: _216  and  _218
REMARK   92  A    between atoms: _218  and  _219
REMARK   93  A    between atoms: _218  and  _221
REMARK   94  A    between atoms: _221  and  _222
REMARK   95  A    between atoms: _224  and  _226
REMARK   96  A    between atoms: _226  and  _227
REMARK   97  A    between atoms: _229  and  _231
REMARK   98  A    between atoms: _231  and  _232
REMARK   99  A    between atoms: _231  and  _234
REMARK  100  A    between atoms: _234  and  _235
REMARK  101  A    between atoms: _236  and  _238
REMARK  102  A    between atoms: _238  and  _239
REMARK  103  A    between atoms: _242  and  _244
REMARK  104  A    between atoms: _244  and  _245
REMARK  105  A    between atoms: _244  and  _247
REMARK  106  A    between atoms: _247  and  _248
REMARK  107  A    between atoms: _248  and  _249
REMARK  108  A    between atoms: _254  and  _256
REMARK  109  A    between atoms: _256  and  _257
REMARK  110  A    between atoms: _256  and  _259
REMARK  111  A    between atoms: _259  and  _260
REMARK  112  A    between atoms: _260  and  _261
REMARK  113  A    between atoms: _261  and  _262
REMARK  114  A    between atoms: _262  and  _263
REMARK  115  A    between atoms: _268  and  _269
REMARK  116  A    between atoms: _274  and  _276
REMARK  117  A    between atoms: _276  and  _277
REMARK  118  A    between atoms: _279  and  _281
REMARK  119  A    between atoms: _281  and  _282
REMARK  120  A    between atoms: _281  and  _284
REMARK  121  A    between atoms: _287  and  _289
REMARK  122  A    between atoms: _289  and  _290
REMARK  123  A    between atoms: _289  and  _292
REMARK  124  A    between atoms: _292  and  _293
REMARK  125  A    between atoms: _298  and  _299
REMARK                            x       y       z     vdW  Elec       q    Type
REMARK                         _______ _______ _______ _____ _____    ______ ____
ROOT
ATOM      1  CB  HIS A   1      45.611  72.219 -35.050  0.00  0.00    +0.072 C 
ENDROOT
BRANCH   1   2
ATOM      2  CG  HIS A   1      46.805  71.354 -34.783  0.00  0.00    +0.082 A 
ATOM      3  ND1 HIS A   1      46.702  70.083 -34.258  0.00  0.00    -0.227 NA
ATOM      4  CE1 HIS A   1      47.912  69.588 -34.067  0.00  0.00    +0.199 A 
ATOM      5  NE2 HIS A   1      48.797  70.490 -34.453  0.00  0.00    -0.221 NA
ATOM      6  CD2 HIS A   1      48.131  71.602 -34.908  0.00  0.00    +0.115 A 
ENDBRANCH   1   2
BRANCH   1   7
ATOM      7  CA  HIS A   1      45.109  72.204 -36.510  0.00  0.00    +0.139 C 
BRANCH   7   8
ATOM      8  N   HIS A   1      44.252  71.055 -36.779  0.00  0.00    -0.239 NA
ATOM      9  H   HIS A   1      44.278  70.222 -36.157  0.00  0.00    +0.142 HD
ENDBRANCH   7   8
BRANCH   7  10
ATOM     10  C   HIS A   1      46.266  72.282 -37.502  0.00  0.00    +0.224 C 
ATOM     11  O   HIS A   1      47.054  73.227 -37.479  0.00  0.00    -0.287 OA
ENDBRANCH   7  10
ENDBRANCH   1   7
TORSDOF 4
REMARK  Name = ../refined-set-2016/1v2u/1v2u_pocket.pdb
REMARK  125 active torsions:
REMARK  status: ('A' for Active; 'I' for Inactive)
REMARK    1  A    between atoms: _1  and  _5
REMARK    2  A    between atoms: _5  and  _6
REMARK    3  A    between atoms: _5  and  _8
REMARK    4  A    between atoms: _8  and  _9
REMARK    5  A    between atoms: _12  and  _14
REMARK    6  A    between atoms: _14  and  _15
REMARK    7  A    between atoms: _14  and  _17
REMARK    8  A    between atoms: _20  and  _22
REMARK    9  A    between atoms: _22  and  _23
REMARK   10  A    between atoms: _22  and  _25
REMARK   11  A    between atoms: _25  and  _26
REMARK   12  A    between atoms: _31  and  _33
REMARK   13  A    between atoms: _33  and  _34
REMARK   14  A    between atoms: _33  and  _36
REMARK   15  A    between atoms: _36  and  _37
REMARK   16  A    between atoms: _40  and  _42
REMARK   17  A    between atoms: _42  and  _43
REMARK   18  A    between atoms: _42  and  _45
REMARK   19  A    between atoms: _45  and  _46
REMARK   20  A    between atoms: _49  and  _51
REMARK   21  A    between atoms: _51  and  _52
REMARK   22  A    between atoms: _51  and  _54
REMARK   23  A    between atoms: _54  and  _55
REMARK   24  A    between atoms: _58  and  _60
REMARK   25  A    between atoms: _60  and  _61
REMARK   26  A    between atoms: _60  and  _63
REMARK   27  A    between atoms: _63  and  _64
REMARK   28  A    between atoms: _69  and  _71
REMARK   29  A    between atoms: _71  and  _72
REMARK   30  A    between atoms: _71  and  _74
REMARK   31  A    between atoms: _74  and  _75
REMARK   32  A    between atoms: _80  and  _81
REMARK   33  A    between atoms: _83  and  _85
REMARK   34  A    between atoms: _85  and  _86
REMARK   35  A    between atoms: _89  and  _91
REMARK   36  A    between atoms: _91  and  _92
REMARK   37  A    between atoms: _91  and  _94
REMARK   38  A    between atoms: _94  and  _95
REMARK   39  A    between atoms: _95  and  _96
REMARK   40  A    between atoms: _96  and  _97
REMARK   41  A    between atoms: _97  and  _98
REMARK   42  A    between atoms: _102  and  _104
REMARK   43  A    between atoms: _104  and  _105
REMARK   44  A    between atoms: _104  and  _107
REMARK   45  A    between atoms: _107  and  _108
REMARK   46  A    between atoms: _111  and  _113
REMARK   47  A    between atoms: _113  and  _114
REMARK   48  A    between atoms: _113  and  _116
REMARK   49  A    between atoms: _116  and  _117
REMARK   50  A    between atoms: _119  and  _121
REMARK   51  A    between atoms: _121  and  _122
REMARK   52  A    between atoms: _121  and  _124
REMARK   53  A    between atoms: _124  and  _125
REMARK   54  A    between atoms: _125  and  _235
REMARK   55  A    between atoms: _126  and  _128
REMARK   56  A    between atoms: _128  and  _129
REMARK   57  A    between atoms: _128  and  _131
REMARK   58  A    between atoms: _131  and  _132
REMARK   59  A    between atoms: _132  and  _133
REMARK   60  A    between atoms: _138  and  _140
REMARK   61  A    between atoms: _140  and  _141
REMARK   62  A    between atoms: _143  and  _145
REMARK   63  A    between atoms: _145  and  _146
REMARK   64  A    between atoms: _145  and  _148
REMARK   65  A    between atoms: _148  and  _149
REMARK   66  A    between atoms: _152  and  _154
REMARK   67  A    between atoms: _154  and  _155
REMARK   68  A    between atoms: _154  and  _157
REMARK   69  A    between atoms: _157  and  _158
REMARK   70  A    between atoms: _160  and  _162
REMARK   71  A    between atoms: _162  and  _163
REMARK   72  A    between atoms: _165  and  _167
REMARK   73  A    between atoms: _167  and  _168
REMARK   74  A    between atoms: _170  and  _172
REMARK   75  A    between atoms: _172  and  _173
REMARK   76  A    between atoms: _172  and  _175
REMARK   77  A    between atoms: _175  and  _176
REMARK   78  A    between atoms: _179  and  _181
REMARK   79  A    between atoms: _181  and  _182
REMARK   80  A    between atoms: _181  and  _184
REMARK   81  A    between atoms: _187  and  _189
REMARK   82  A    between atoms: _189  and  _190
REMARK   83  A    between atoms: _189  and  _192
REMARK   84  A    between atoms: _192  and  _193
REMARK   85  A    between atoms: _195  and  _197
REMARK   86  A    between atoms: _197  and  _198
REMARK   87  A    between atoms: _197  and  _200
REMARK   88  A    between atoms: _200  and  _201
REMARK   89  A    between atoms: _211  and  _213
REMARK   90  A    between atoms: _213  and  _214
REMARK   91  A    between atoms: _216  and  _218
REMARK   92  A    between atoms: _218  and  _219
REMARK   93  A    between atoms: _218  and  _221
REMARK   94  A    between atoms: _221  and  _222
REMARK   95  A    between atoms: _224  and  _226
REMARK   96  A    between atoms: _226  and  _227
REMARK   97  A    between atoms: _229  and  _231
REMARK   98  A    between atoms: _231  and  _232
REMARK   99  A    between atoms: _231  and  _234
REMARK  100  A    between atoms: _234  and  _235
REMARK  101  A    between atoms: _236  and  _238
REMARK  102  A    between atoms: _238  and  _239
REMARK  103  A    between atoms: _242  and  _244
REMARK  104  A    between atoms: _244  and  _245
REMARK  105  A    between atoms: _244  and  _247
REMARK  106  A    between atoms: _247  and  _248
REMARK  107  A    between atoms: _248  and  _249
REMARK  108  A    between atoms: _254  and  _256
REMARK  109  A    between atoms: _256  and  _257
REMARK  110  A    between atoms: _256  and  _259
REMARK  111  A    between atoms: _259  and  _260
REMARK  112  A    between atoms: _260  and  _261
REMARK  113  A    between atoms: _261  and  _262
REMARK  114  A    between atoms: _262  and  _263
REMARK  115  A    between atoms: _268  and  _269
REMARK  116  A    between atoms: _274  and  _276
REMARK  117  A    between atoms: _276  and  _277
REMARK  118  A    between atoms: _279  and  _281
REMARK  119  A    between atoms: _281  and  _282
REMARK  120  A    between atoms: _281  and  _284
REMARK  121  A    between atoms: _287  and  _289
REMARK  122  A    between atoms: _289  and  _290
REMARK  123  A    between atoms: _289  and  _292
REMARK  124  A    between atoms: _292  and  _293
REMARK  125  A    between atoms: _298  and  _299
REMARK                            x       y       z     vdW  Elec       q    Type
REMARK                         _______ _______ _______ _____ _____    ______ ____
ROOT
ATOM      1  CA  LEU A   1      41.748  71.016 -29.938  0.00  0.00    +0.133 C 
ENDROOT
BRANCH   1   2
ATOM      2  N   LEU A   1      41.329  72.038 -28.987  0.00  0.00    -0.239 NA
ATOM      3  H   LEU A   1      40.922  72.922 -29.355  0.00  0.00    +0.142 HD
ENDBRANCH   1   2
BRANCH   1   4
ATOM      4  C   LEU A   1      40.839  69.787 -29.893  0.00  0.00    +0.224 C 
ATOM      5  O   LEU A   1      41.222  68.698 -30.310  0.00  0.00    -0.287 OA
ENDBRANCH   1   4
BRANCH   1   6
ATOM      6  CB  LEU A   1      43.209  70.618 -29.700  0.00  0.00    +0.025 C 
BRANCH   6   7
ATOM      7  CG  LEU A   1      44.219  71.358 -30.588  0.00  0.00    +0.002 C 
ATOM      8  CD2 LEU A   1      45.634  70.981 -30.181  0.00  0.00    +0.000 C 
ATOM      9  CD1 LEU A   1      44.012  72.856 -30.485  0.00  0.00    +0.000 C 
ENDBRANCH   6   7
ENDBRANCH   1   6
TORSDOF 4
REMARK  Name = ../refined-set-2016/1v2u/1v2u_pocket.pdb
REMARK  125 active torsions:
REMARK  status: ('A' for Active; 'I' for Inactive)
REMARK    1  A    between atoms: _1  and  _5
REMARK    2  A    between atoms: _5  and  _6
REMARK    3  A    between atoms: _5  and  _8
REMARK    4  A    between atoms: _8  and  _9
REMARK    5  A    between atoms: _12  and  _14
REMARK    6  A    between atoms: _14  and  _15
REMARK    7  A    between atoms: _14  and  _17
REMARK    8  A    between atoms: _20  and  _22
REMARK    9  A    between atoms: _22  and  _23
REMARK   10  A    between atoms: _22  and  _25
REMARK   11  A    between atoms: _25  and  _26
REMARK   12  A    between atoms: _31  and  _33
REMARK   13  A    between atoms: _33  and  _34
REMARK   14  A    between atoms: _33  and  _36
REMARK   15  A    between atoms: _36  and  _37
REMARK   16  A    between atoms: _40  and  _42
REMARK   17  A    between atoms: _42  and  _43
REMARK   18  A    between atoms: _42  and  _45
REMARK   19  A    between atoms: _45  and  _46
REMARK   20  A    between atoms: _49  and  _51
REMARK   21  A    between atoms: _51  and  _52
REMARK   22  A    between atoms: _51  and  _54
REMARK   23  A    between atoms: _54  and  _55
REMARK   24  A    between atoms: _58  and  _60
REMARK   25  A    between atoms: _60  and  _61
REMARK   26  A    between atoms: _60  and  _63
REMARK   27  A    between atoms: _63  and  _64
REMARK   28  A    between atoms: _69  and  _71
REMARK   29  A    between atoms: _71  and  _72
REMARK   30  A    between atoms: _71  and  _74
REMARK   31  A    between atoms: _74  and  _75
REMARK   32  A    between atoms: _80  and  _81
REMARK   33  A    between atoms: _83  and  _85
REMARK   34  A    between atoms: _85  and  _86
REMARK   35  A    between atoms: _89  and  _91
REMARK   36  A    between atoms: _91  and  _92
REMARK   37  A    between atoms: _91  and  _94
REMARK   38  A    between atoms: _94  and  _95
REMARK   39  A    between atoms: _95  and  _96
REMARK   40  A    between atoms: _96  and  _97
REMARK   41  A    between atoms: _97  and  _98
REMARK   42  A    between atoms: _102  and  _104
REMARK   43  A    between atoms: _104  and  _105
REMARK   44  A    between atoms: _104  and  _107
REMARK   45  A    between atoms: _107  and  _108
REMARK   46  A    between atoms: _111  and  _113
REMARK   47  A    between atoms: _113  and  _114
REMARK   48  A    between atoms: _113  and  _116
REMARK   49  A    between atoms: _116  and  _117
REMARK   50  A    between atoms: _119  and  _121
REMARK   51  A    between atoms: _121  and  _122
REMARK   52  A    between atoms: _121  and  _124
REMARK   53  A    between atoms: _124  and  _125
REMARK   54  A    between atoms: _125  and  _235
REMARK   55  A    between atoms: _126  and  _128
REMARK   56  A    between atoms: _128  and  _129
REMARK   57  A    between atoms: _128  and  _131
REMARK   58  A    between atoms: _131  and  _132
REMARK   59  A    between atoms: _132  and  _133
REMARK   60  A    between atoms: _138  and  _140
REMARK   61  A    between atoms: _140  and  _141
REMARK   62  A    between atoms: _143  and  _145
REMARK   63  A    between atoms: _145  and  _146
REMARK   64  A    between atoms: _145  and  _148
REMARK   65  A    between atoms: _148  and  _149
REMARK   66  A    between atoms: _152  and  _154
REMARK   67  A    between atoms: _154  and  _155
REMARK   68  A    between atoms: _154  and  _157
REMARK   69  A    between atoms: _157  and  _158
REMARK   70  A    between atoms: _160  and  _162
REMARK   71  A    between atoms: _162  and  _163
REMARK   72  A    between atoms: _165  and  _167
REMARK   73  A    between atoms: _167  and  _168
REMARK   74  A    between atoms: _170  and  _172
REMARK   75  A    between atoms: _172  and  _173
REMARK   76  A    between atoms: _172  and  _175
REMARK   77  A    between atoms: _175  and  _176
REMARK   78  A    between atoms: _179  and  _181
REMARK   79  A    between atoms: _181  and  _182
REMARK   80  A    between atoms: _181  and  _184
REMARK   81  A    between atoms: _187  and  _189
REMARK   82  A    between atoms: _189  and  _190
REMARK   83  A    between atoms: _189  and  _192
REMARK   84  A    between atoms: _192  and  _193
REMARK   85  A    between atoms: _195  and  _197
REMARK   86  A    between atoms: _197  and  _198
REMARK   87  A    between atoms: _197  and  _200
REMARK   88  A    between atoms: _200  and  _201
REMARK   89  A    between atoms: _211  and  _213
REMARK   90  A    between atoms: _213  and  _214
REMARK   91  A    between atoms: _216  and  _218
REMARK   92  A    between atoms: _218  and  _219
REMARK   93  A    between atoms: _218  and  _221
REMARK   94  A    between atoms: _221  and  _222
REMARK   95  A    between atoms: _224  and  _226
REMARK   96  A    between atoms: _226  and  _227
REMARK   97  A    between atoms: _229  and  _231
REMARK   98  A    between atoms: _231  and  _232
REMARK   99  A    between atoms: _231  and  _234
REMARK  100  A    between atoms: _234  and  _235
REMARK  101  A    between atoms: _236  and  _238
REMARK  102  A    between atoms: _238  and  _239
REMARK  103  A    between atoms: _242  and  _244
REMARK  104  A    between atoms: _244  and  _245
REMARK  105  A    between atoms: _244  and  _247
REMARK  106  A    between atoms: _247  and  _248
REMARK  107  A    between atoms: _248  and  _249
REMARK  108  A    between atoms: _254  and  _256
REMARK  109  A    between atoms: _256  and  _257
REMARK  110  A    between atoms: _256  and  _259
REMARK  111  A    between atoms: _259  and  _260
REMARK  112  A    between atoms: _260  and  _261
REMARK  113  A    between atoms: _261  and  _262
REMARK  114  A    between atoms: _262  and  _263
REMARK  115  A    between atoms: _268  and  _269
REMARK  116  A    between atoms: _274  and  _276
REMARK  117  A    between atoms: _276  and  _277
REMARK  118  A    between atoms: _279  and  _281
REMARK  119  A    between atoms: _281  and  _282
REMARK  120  A    between atoms: _281  and  _284
REMARK  121  A    between atoms: _287  and  _289
REMARK  122  A    between atoms: _289  and  _290
REMARK  123  A    between atoms: _289  and  _292
REMARK  124  A    between atoms: _292  and  _293
REMARK  125  A    between atoms: _298  and  _299
REMARK                            x       y       z     vdW  Elec       q    Type
REMARK                         _______ _______ _______ _____ _____    ______ ____
ROOT
ATOM      1  CA  ASP A   1      41.292  67.662 -33.934  0.00  0.00    +0.144 C 
ENDROOT
BRANCH   1   2
ATOM      2  N   ASP A   1      40.151  67.268 -33.107  0.00  0.00    -0.239 NA
ATOM      3  H   ASP A   1      40.325  66.824 -32.183  0.00  0.00    +0.142 HD
ENDBRANCH   1   2
BRANCH   1   4
ATOM      4  C   ASP A   1      41.536  66.612 -35.010  0.00  0.00    +0.225 C 
ATOM      5  O   ASP A   1      42.423  65.765 -34.894  0.00  0.00    -0.287 OA
ENDBRANCH   1   4
BRANCH   1   6
ATOM      6  CB  ASP A   1      42.533  67.830 -33.055  0.00  0.00    +0.139 C 
BRANCH   6   7
ATOM      7  CG  ASP A   1      43.703  68.435 -33.800  0.00  0.00    +0.367 C 
ATOM      8  OD2 ASP A   1      44.835  68.360 -33.272  0.00  0.00    -0.246 OA
ATOM      9  OD1 ASP A   1      43.494  68.994 -34.900  0.00  0.00    -0.246 OA
ENDBRANCH   6   7
ENDBRANCH   1   6
TORSDOF 4
REMARK  Name = ../refined-set-2016/1v2u/1v2u_pocket.pdb
REMARK  125 active torsions:
REMARK  status: ('A' for Active; 'I' for Inactive)
REMARK    1  A    between atoms: _1  and  _5
REMARK    2  A    between atoms: _5  and  _6
REMARK    3  A    between atoms: _5  and  _8
REMARK    4  A    between atoms: _8  and  _9
REMARK    5  A    between atoms: _12  and  _14
REMARK    6  A    between atoms: _14  and  _15
REMARK    7  A    between atoms: _14  and  _17
REMARK    8  A    between atoms: _20  and  _22
REMARK    9  A    between atoms: _22  and  _23
REMARK   10  A    between atoms: _22  and  _25
REMARK   11  A    between atoms: _25  and  _26
REMARK   12  A    between atoms: _31  and  _33
REMARK   13  A    between atoms: _33  and  _34
REMARK   14  A    between atoms: _33  and  _36
REMARK   15  A    between atoms: _36  and  _37
REMARK   16  A    between atoms: _40  and  _42
REMARK   17  A    between atoms: _42  and  _43
REMARK   18  A    between atoms: _42  and  _45
REMARK   19  A    between atoms: _45  and  _46
REMARK   20  A    between atoms: _49  and  _51
REMARK   21  A    between atoms: _51  and  _52
REMARK   22  A    between atoms: _51  and  _54
REMARK   23  A    between atoms: _54  and  _55
REMARK   24  A    between atoms: _58  and  _60
REMARK   25  A    between atoms: _60  and  _61
REMARK   26  A    between atoms: _60  and  _63
REMARK   27  A    between atoms: _63  and  _64
REMARK   28  A    between atoms: _69  and  _71
REMARK   29  A    between atoms: _71  and  _72
REMARK   30  A    between atoms: _71  and  _74
REMARK   31  A    between atoms: _74  and  _75
REMARK   32  A    between atoms: _80  and  _81
REMARK   33  A    between atoms: _83  and  _85
REMARK   34  A    between atoms: _85  and  _86
REMARK   35  A    between atoms: _89  and  _91
REMARK   36  A    between atoms: _91  and  _92
REMARK   37  A    between atoms: _91  and  _94
REMARK   38  A    between atoms: _94  and  _95
REMARK   39  A    between atoms: _95  and  _96
REMARK   40  A    between atoms: _96  and  _97
REMARK   41  A    between atoms: _97  and  _98
REMARK   42  A    between atoms: _102  and  _104
REMARK   43  A    between atoms: _104  and  _105
REMARK   44  A    between atoms: _104  and  _107
REMARK   45  A    between atoms: _107  and  _108
REMARK   46  A    between atoms: _111  and  _113
REMARK   47  A    between atoms: _113  and  _114
REMARK   48  A    between atoms: _113  and  _116
REMARK   49  A    between atoms: _116  and  _117
REMARK   50  A    between atoms: _119  and  _121
REMARK   51  A    between atoms: _121  and  _122
REMARK   52  A    between atoms: _121  and  _124
REMARK   53  A    between atoms: _124  and  _125
REMARK   54  A    between atoms: _125  and  _235
REMARK   55  A    between atoms: _126  and  _128
REMARK   56  A    between atoms: _128  and  _129
REMARK   57  A    between atoms: _128  and  _131
REMARK   58  A    between atoms: _131  and  _132
REMARK   59  A    between atoms: _132  and  _133
REMARK   60  A    between atoms: _138  and  _140
REMARK   61  A    between atoms: _140  and  _141
REMARK   62  A    between atoms: _143  and  _145
REMARK   63  A    between atoms: _145  and  _146
REMARK   64  A    between atoms: _145  and  _148
REMARK   65  A    between atoms: _148  and  _149
REMARK   66  A    between atoms: _152  and  _154
REMARK   67  A    between atoms: _154  and  _155
REMARK   68  A    between atoms: _154  and  _157
REMARK   69  A    between atoms: _157  and  _158
REMARK   70  A    between atoms: _160  and  _162
REMARK   71  A    between atoms: _162  and  _163
REMARK   72  A    between atoms: _165  and  _167
REMARK   73  A    between atoms: _167  and  _168
REMARK   74  A    between atoms: _170  and  _172
REMARK   75  A    between atoms: _172  and  _173
REMARK   76  A    between atoms: _172  and  _175
REMARK   77  A    between atoms: _175  and  _176
REMARK   78  A    between atoms: _179  and  _181
REMARK   79  A    between atoms: _181  and  _182
REMARK   80  A    between atoms: _181  and  _184
REMARK   81  A    between atoms: _187  and  _189
REMARK   82  A    between atoms: _189  and  _190
REMARK   83  A    between atoms: _189  and  _192
REMARK   84  A    between atoms: _192  and  _193
REMARK   85  A    between atoms: _195  and  _197
REMARK   86  A    between atoms: _197  and  _198
REMARK   87  A    between atoms: _197  and  _200
REMARK   88  A    between atoms: _200  and  _201
REMARK   89  A    between atoms: _211  and  _213
REMARK   90  A    between atoms: _213  and  _214
REMARK   91  A    between atoms: _216  and  _218
REMARK   92  A    between atoms: _218  and  _219
REMARK   93  A    between atoms: _218  and  _221
REMARK   94  A    between atoms: _221  and  _222
REMARK   95  A    between atoms: _224  and  _226
REMARK   96  A    between atoms: _226  and  _227
REMARK   97  A    between atoms: _229  and  _231
REMARK   98  A    between atoms: _231  and  _232
REMARK   99  A    between atoms: _231  and  _234
REMARK  100  A    between atoms: _234  and  _235
REMARK  101  A    between atoms: _236  and  _238
REMARK  102  A    between atoms: _238  and  _239
REMARK  103  A    between atoms: _242  and  _244
REMARK  104  A    between atoms: _244  and  _245
REMARK  105  A    between atoms: _244  and  _247
REMARK  106  A    between atoms: _247  and  _248
REMARK  107  A    between atoms: _248  and  _249
REMARK  108  A    between atoms: _254  and  _256
REMARK  109  A    between atoms: _256  and  _257
REMARK  110  A    between atoms: _256  and  _259
REMARK  111  A    between atoms: _259  and  _260
REMARK  112  A    between atoms: _260  and  _261
REMARK  113  A    between atoms: _261  and  _262
REMARK  114  A    between atoms: _262  and  _263
REMARK  115  A    between atoms: _268  and  _269
REMARK  116  A    between atoms: _274  and  _276
REMARK  117  A    between atoms: _276  and  _277
REMARK  118  A    between atoms: _279  and  _281
REMARK  119  A    between atoms: _281  and  _282
REMARK  120  A    between atoms: _281  and  _284
REMARK  121  A    between atoms: _287  and  _289
REMARK  122  A    between atoms: _289  and  _290
REMARK  123  A    between atoms: _289  and  _292
REMARK  124  A    between atoms: _292  and  _293
REMARK  125  A    between atoms: _298  and  _299
REMARK                            x       y       z     vdW  Elec       q    Type
REMARK                         _______ _______ _______ _____ _____    ______ ____
ROOT
ATOM      1  CA  ILE A   1      53.968  56.506 -33.831  0.00  0.00    +0.133 C 
ENDROOT
BRANCH   1   2
ATOM      2  N   ILE A   1      54.138  55.094 -33.514  0.00  0.00    -0.239 NA
ATOM      3  H   ILE A   1      54.959  54.806 -32.944  0.00  0.00    +0.142 HD
ENDBRANCH   1   2
BRANCH   1   4
ATOM      4  CB  ILE A   1      54.023  57.383 -32.564  0.00  0.00    +0.023 C 
ATOM      5  CG2 ILE A   1      53.750  58.843 -32.931  0.00  0.00    +0.002 C 
BRANCH   4   6
ATOM      6  CG1 ILE A   1      53.003  56.882 -31.536  0.00  0.00    +0.002 C 
ATOM      7  CD1 ILE A   1      53.109  57.573 -30.190  0.00  0.00    +0.000 C 
ENDBRANCH   4   6
ENDBRANCH   1   4
BRANCH   1   8
ATOM      8  C   ILE A   1      55.137  56.893 -34.727  0.00  0.00    +0.224 C 
ATOM      9  O   ILE A   1      56.271  56.489 -34.476  0.00  0.00    -0.287 OA
ENDBRANCH   1   8
TORSDOF 4
REMARK  Name = ../refined-set-2016/1v2u/1v2u_pocket.pdb
REMARK  125 active torsions:
REMARK  status: ('A' for Active; 'I' for Inactive)
REMARK    1  A    between atoms: _1  and  _5
REMARK    2  A    between atoms: _5  and  _6
REMARK    3  A    between atoms: _5  and  _8
REMARK    4  A    between atoms: _8  and  _9
REMARK    5  A    between atoms: _12  and  _14
REMARK    6  A    between atoms: _14  and  _15
REMARK    7  A    between atoms: _14  and  _17
REMARK    8  A    between atoms: _20  and  _22
REMARK    9  A    between atoms: _22  and  _23
REMARK   10  A    between atoms: _22  and  _25
REMARK   11  A    between atoms: _25  and  _26
REMARK   12  A    between atoms: _31  and  _33
REMARK   13  A    between atoms: _33  and  _34
REMARK   14  A    between atoms: _33  and  _36
REMARK   15  A    between atoms: _36  and  _37
REMARK   16  A    between atoms: _40  and  _42
REMARK   17  A    between atoms: _42  and  _43
REMARK   18  A    between atoms: _42  and  _45
REMARK   19  A    between atoms: _45  and  _46
REMARK   20  A    between atoms: _49  and  _51
REMARK   21  A    between atoms: _51  and  _52
REMARK   22  A    between atoms: _51  and  _54
REMARK   23  A    between atoms: _54  and  _55
REMARK   24  A    between atoms: _58  and  _60
REMARK   25  A    between atoms: _60  and  _61
REMARK   26  A    between atoms: _60  and  _63
REMARK   27  A    between atoms: _63  and  _64
REMARK   28  A    between atoms: _69  and  _71
REMARK   29  A    between atoms: _71  and  _72
REMARK   30  A    between atoms: _71  and  _74
REMARK   31  A    between atoms: _74  and  _75
REMARK   32  A    between atoms: _80  and  _81
REMARK   33  A    between atoms: _83  and  _85
REMARK   34  A    between atoms: _85  and  _86
REMARK   35  A    between atoms: _89  and  _91
REMARK   36  A    between atoms: _91  and  _92
REMARK   37  A    between atoms: _91  and  _94
REMARK   38  A    between atoms: _94  and  _95
REMARK   39  A    between atoms: _95  and  _96
REMARK   40  A    between atoms: _96  and  _97
REMARK   41  A    between atoms: _97  and  _98
REMARK   42  A    between atoms: _102  and  _104
REMARK   43  A    between atoms: _104  and  _105
REMARK   44  A    between atoms: _104  and  _107
REMARK   45  A    between atoms: _107  and  _108
REMARK   46  A    between atoms: _111  and  _113
REMARK   47  A    between atoms: _113  and  _114
REMARK   48  A    between atoms: _113  and  _116
REMARK   49  A    between atoms: _116  and  _117
REMARK   50  A    between atoms: _119  and  _121
REMARK   51  A    between atoms: _121  and  _122
REMARK   52  A    between atoms: _121  and  _124
REMARK   53  A    between atoms: _124  and  _125
REMARK   54  A    between atoms: _125  and  _235
REMARK   55  A    between atoms: _126  and  _128
REMARK   56  A    between atoms: _128  and  _129
REMARK   57  A    between atoms: _128  and  _131
REMARK   58  A    between atoms: _131  and  _132
REMARK   59  A    between atoms: _132  and  _133
REMARK   60  A    between atoms: _138  and  _140
REMARK   61  A    between atoms: _140  and  _141
REMARK   62  A    between atoms: _143  and  _145
REMARK   63  A    between atoms: _145  and  _146
REMARK   64  A    between atoms: _145  and  _148
REMARK   65  A    between atoms: _148  and  _149
REMARK   66  A    between atoms: _152  and  _154
REMARK   67  A    between atoms: _154  and  _155
REMARK   68  A    between atoms: _154  and  _157
REMARK   69  A    between atoms: _157  and  _158
REMARK   70  A    between atoms: _160  and  _162
REMARK   71  A    between atoms: _162  and  _163
REMARK   72  A    between atoms: _165  and  _167
REMARK   73  A    between atoms: _167  and  _168
REMARK   74  A    between atoms: _170  and  _172
REMARK   75  A    between atoms: _172  and  _173
REMARK   76  A    between atoms: _172  and  _175
REMARK   77  A    between atoms: _175  and  _176
REMARK   78  A    between atoms: _179  and  _181
REMARK   79  A    between atoms: _181  and  _182
REMARK   80  A    between atoms: _181  and  _184
REMARK   81  A    between atoms: _187  and  _189
REMARK   82  A    between atoms: _189  and  _190
REMARK   83  A    between atoms: _189  and  _192
REMARK   84  A    between atoms: _192  and  _193
REMARK   85  A    between atoms: _195  and  _197
REMARK   86  A    between atoms: _197  and  _198
REMARK   87  A    between atoms: _197  and  _200
REMARK   88  A    between atoms: _200  and  _201
REMARK   89  A    between atoms: _211  and  _213
REMARK   90  A    between atoms: _213  and  _214
REMARK   91  A    between atoms: _216  and  _218
REMARK   92  A    between atoms: _218  and  _219
REMARK   93  A    between atoms: _218  and  _221
REMARK   94  A    between atoms: _221  and  _222
REMARK   95  A    between atoms: _224  and  _226
REMARK   96  A    between atoms: _226  and  _227
REMARK   97  A    between atoms: _229  and  _231
REMARK   98  A    between atoms: _231  and  _232
REMARK   99  A    between atoms: _231  and  _234
REMARK  100  A    between atoms: _234  and  _235
REMARK  101  A    between atoms: _236  and  _238
REMARK  102  A    between atoms: _238  and  _239
REMARK  103  A    between atoms: _242  and  _244
REMARK  104  A    between atoms: _244  and  _245
REMARK  105  A    between atoms: _244  and  _247
REMARK  106  A    between atoms: _247  and  _248
REMARK  107  A    between atoms: _248  and  _249
REMARK  108  A    between atoms: _254  and  _256
REMARK  109  A    between atoms: _256  and  _257
REMARK  110  A    between atoms: _256  and  _259
REMARK  111  A    between atoms: _259  and  _260
REMARK  112  A    between atoms: _260  and  _261
REMARK  113  A    between atoms: _261  and  _262
REMARK  114  A    between atoms: _262  and  _263
REMARK  115  A    between atoms: _268  and  _269
REMARK  116  A    between atoms: _274  and  _276
REMARK  117  A    between atoms: _276  and  _277
REMARK  118  A    between atoms: _279  and  _281
REMARK  119  A    between atoms: _281  and  _282
REMARK  120  A    between atoms: _281  and  _284
REMARK  121  A    between atoms: _287  and  _289
REMARK  122  A    between atoms: _289  and  _290
REMARK  123  A    between atoms: _289  and  _292
REMARK  124  A    between atoms: _292  and  _293
REMARK  125  A    between atoms: _298  and  _299
REMARK                            x       y       z     vdW  Elec       q    Type
REMARK                         _______ _______ _______ _____ _____    ______ ____
ROOT
ATOM      1  CB  ASN A   1      61.251  68.830 -32.774  0.00  0.00    +0.110 C 
ENDROOT
BRANCH   1   2
ATOM      2  CG  ASN A   1      62.462  69.333 -32.011  0.00  0.00    +0.221 C 
ATOM      3  ND2 ASN A   1      62.218  70.172 -31.014  0.00  0.00    -0.329 N 
ATOM      4 HD21 ASN A   1      63.005  70.560 -30.457  0.00  0.00    +0.145 HD
ATOM      5 HD22 ASN A   1      61.239  70.442 -30.789  0.00  0.00    +0.145 HD
ATOM      6  OD1 ASN A   1      63.600  68.982 -32.318  0.00  0.00    -0.275 OA
ENDBRANCH   1   2
BRANCH   1   7
ATOM      7  CA  ASN A   1      61.580  67.663 -33.706  0.00  0.00    +0.142 C 
BRANCH   7   8
ATOM      8  N   ASN A   1      60.419  67.365 -34.535  0.00  0.00    -0.239 NA
ATOM      9  H   ASN A   1      59.589  67.988 -34.472  0.00  0.00    +0.142 HD
ENDBRANCH   7   8
BRANCH   7  10
ATOM     10  C   ASN A   1      61.974  66.431 -32.904  0.00  0.00    +0.225 C 
ATOM     11  O   ASN A   1      61.112  65.705 -32.413  0.00  0.00    -0.287 OA
ENDBRANCH   7  10
ENDBRANCH   1   7
TORSDOF 4
REMARK  Name = ../refined-set-2016/1v2u/1v2u_pocket.pdb
REMARK  125 active torsions:
REMARK  status: ('A' for Active; 'I' for Inactive)
REMARK    1  A    between atoms: _1  and  _5
REMARK    2  A    between atoms: _5  and  _6
REMARK    3  A    between atoms: _5  and  _8
REMARK    4  A    between atoms: _8  and  _9
REMARK    5  A    between atoms: _12  and  _14
REMARK    6  A    between atoms: _14  and  _15
REMARK    7  A    between atoms: _14  and  _17
REMARK    8  A    between atoms: _20  and  _22
REMARK    9  A    between atoms: _22  and  _23
REMARK   10  A    between atoms: _22  and  _25
REMARK   11  A    between atoms: _25  and  _26
REMARK   12  A    between atoms: _31  and  _33
REMARK   13  A    between atoms: _33  and  _34
REMARK   14  A    between atoms: _33  and  _36
REMARK   15  A    between atoms: _36  and  _37
REMARK   16  A    between atoms: _40  and  _42
REMARK   17  A    between atoms: _42  and  _43
REMARK   18  A    between atoms: _42  and  _45
REMARK   19  A    between atoms: _45  and  _46
REMARK   20  A    between atoms: _49  and  _51
REMARK   21  A    between atoms: _51  and  _52
REMARK   22  A    between atoms: _51  and  _54
REMARK   23  A    between atoms: _54  and  _55
REMARK   24  A    between atoms: _58  and  _60
REMARK   25  A    between atoms: _60  and  _61
REMARK   26  A    between atoms: _60  and  _63
REMARK   27  A    between atoms: _63  and  _64
REMARK   28  A    between atoms: _69  and  _71
REMARK   29  A    between atoms: _71  and  _72
REMARK   30  A    between atoms: _71  and  _74
REMARK   31  A    between atoms: _74  and  _75
REMARK   32  A    between atoms: _80  and  _81
REMARK   33  A    between atoms: _83  and  _85
REMARK   34  A    between atoms: _85  and  _86
REMARK   35  A    between atoms: _89  and  _91
REMARK   36  A    between atoms: _91  and  _92
REMARK   37  A    between atoms: _91  and  _94
REMARK   38  A    between atoms: _94  and  _95
REMARK   39  A    between atoms: _95  and  _96
REMARK   40  A    between atoms: _96  and  _97
REMARK   41  A    between atoms: _97  and  _98
REMARK   42  A    between atoms: _102  and  _104
REMARK   43  A    between atoms: _104  and  _105
REMARK   44  A    between atoms: _104  and  _107
REMARK   45  A    between atoms: _107  and  _108
REMARK   46  A    between atoms: _111  and  _113
REMARK   47  A    between atoms: _113  and  _114
REMARK   48  A    between atoms: _113  and  _116
REMARK   49  A    between atoms: _116  and  _117
REMARK   50  A    between atoms: _119  and  _121
REMARK   51  A    between atoms: _121  and  _122
REMARK   52  A    between atoms: _121  and  _124
REMARK   53  A    between atoms: _124  and  _125
REMARK   54  A    between atoms: _125  and  _235
REMARK   55  A    between atoms: _126  and  _128
REMARK   56  A    between atoms: _128  and  _129
REMARK   57  A    between atoms: _128  and  _131
REMARK   58  A    between atoms: _131  and  _132
REMARK   59  A    between atoms: _132  and  _133
REMARK   60  A    between atoms: _138  and  _140
REMARK   61  A    between atoms: _140  and  _141
REMARK   62  A    between atoms: _143  and  _145
REMARK   63  A    between atoms: _145  and  _146
REMARK   64  A    between atoms: _145  and  _148
REMARK   65  A    between atoms: _148  and  _149
REMARK   66  A    between atoms: _152  and  _154
REMARK   67  A    between atoms: _154  and  _155
REMARK   68  A    between atoms: _154  and  _157
REMARK   69  A    between atoms: _157  and  _158
REMARK   70  A    between atoms: _160  and  _162
REMARK   71  A    between atoms: _162  and  _163
REMARK   72  A    between atoms: _165  and  _167
REMARK   73  A    between atoms: _167  and  _168
REMARK   74  A    between atoms: _170  and  _172
REMARK   75  A    between atoms: _172  and  _173
REMARK   76  A    between atoms: _172  and  _175
REMARK   77  A    between atoms: _175  and  _176
REMARK   78  A    between atoms: _179  and  _181
REMARK   79  A    between atoms: _181  and  _182
REMARK   80  A    between atoms: _181  and  _184
REMARK   81  A    between atoms: _187  and  _189
REMARK   82  A    between atoms: _189  and  _190
REMARK   83  A    between atoms: _189  and  _192
REMARK   84  A    between atoms: _192  and  _193
REMARK   85  A    between atoms: _195  and  _197
REMARK   86  A    between atoms: _197  and  _198
REMARK   87  A    between atoms: _197  and  _200
REMARK   88  A    between atoms: _200  and  _201
REMARK   89  A    between atoms: _211  and  _213
REMARK   90  A    between atoms: _213  and  _214
REMARK   91  A    between atoms: _216  and  _218
REMARK   92  A    between atoms: _218  and  _219
REMARK   93  A    between atoms: _218  and  _221
REMARK   94  A    between atoms: _221  and  _222
REMARK   95  A    between atoms: _224  and  _226
REMARK   96  A    between atoms: _226  and  _227
REMARK   97  A    between atoms: _229  and  _231
REMARK   98  A    between atoms: _231  and  _232
REMARK   99  A    between atoms: _231  and  _234
REMARK  100  A    between atoms: _234  and  _235
REMARK  101  A    between atoms: _236  and  _238
REMARK  102  A    between atoms: _238  and  _239
REMARK  103  A    between atoms: _242  and  _244
REMARK  104  A    between atoms: _244  and  _245
REMARK  105  A    between atoms: _244  and  _247
REMARK  106  A    between atoms: _247  and  _248
REMARK  107  A    between atoms: _248  and  _249
REMARK  108  A    between atoms: _254  and  _256
REMARK  109  A    between atoms: _256  and  _257
REMARK  110  A    between atoms: _256  and  _259
REMARK  111  A    between atoms: _259  and  _260
REMARK  112  A    between atoms: _260  and  _261
REMARK  113  A    between atoms: _261  and  _262
REMARK  114  A    between atoms: _262  and  _263
REMARK  115  A    between atoms: _268  and  _269
REMARK  116  A    between atoms: _274  and  _276
REMARK  117  A    between atoms: _276  and  _277
REMARK  118  A    between atoms: _279  and  _281
REMARK  119  A    between atoms: _281  and  _282
REMARK  120  A    between atoms: _281  and  _284
REMARK  121  A    between atoms: _287  and  _289
REMARK  122  A    between atoms: _289  and  _290
REMARK  123  A    between atoms: _289  and  _292
REMARK  124  A    between atoms: _292  and  _293
REMARK  125  A    between atoms: _298  and  _299
REMARK                            x       y       z     vdW  Elec       q    Type
REMARK                         _______ _______ _______ _____ _____    ______ ____
ROOT
ATOM      1  CG  TYR A   1      62.794  69.968 -37.318  0.00  0.00    -0.020 A 
ATOM      2  CD2 TYR A   1      63.099  71.209 -36.759  0.00  0.00    -0.001 A 
ATOM      3  CE2 TYR A   1      62.168  71.895 -35.976  0.00  0.00    +0.036 A 
ATOM      4  CZ  TYR A   1      60.919  71.335 -35.749  0.00  0.00    +0.134 A 
ATOM      5  CE1 TYR A   1      60.597  70.105 -36.298  0.00  0.00    +0.036 A 
ATOM      6  CD1 TYR A   1      61.534  69.430 -37.077  0.00  0.00    -0.001 A 
ENDROOT
BRANCH   4   7
ATOM      7  OH  TYR A   1      59.998  71.997 -34.967  0.00  0.00    -0.506 OA
ATOM      8  HH  TYR A   1      59.168  71.460 -34.910  0.00  0.00    +0.292 HD
ENDBRANCH   4   7
BRANCH   1   9
ATOM      9  CB  TYR A   1      63.815  69.209 -38.131  0.00  0.00    +0.051 C 
BRANCH   9  10
ATOM     10  CA  TYR A   1      64.588  68.189 -37.299  0.00  0.00    +0.137 C 
BRANCH  10  11
ATOM     11  N   TYR A   1      65.528  68.876 -36.432  0.00  0.00    -0.239 NA
ATOM     12  H   TYR A   1      66.062  69.686 -36.808  0.00  0.00    +0.142 HD
ENDBRANCH  10  11
BRANCH  10  13
ATOM     13  C   TYR A   1      65.293  67.201 -38.205  0.00  0.00    +0.224 C 
ATOM     14  O   TYR A   1      66.233  67.558 -38.917  0.00  0.00    -0.287 OA
ENDBRANCH  10  13
ENDBRANCH   9  10
ENDBRANCH   1   9
TORSDOF 5
REMARK  Name = ../refined-set-2016/1v2u/1v2u_pocket.pdb
REMARK  125 active torsions:
REMARK  status: ('A' for Active; 'I' for Inactive)
REMARK    1  A    between atoms: _1  and  _5
REMARK    2  A    between atoms: _5  and  _6
REMARK    3  A    between atoms: _5  and  _8
REMARK    4  A    between atoms: _8  and  _9
REMARK    5  A    between atoms: _12  and  _14
REMARK    6  A    between atoms: _14  and  _15
REMARK    7  A    between atoms: _14  and  _17
REMARK    8  A    between atoms: _20  and  _22
REMARK    9  A    between atoms: _22  and  _23
REMARK   10  A    between atoms: _22  and  _25
REMARK   11  A    between atoms: _25  and  _26
REMARK   12  A    between atoms: _31  and  _33
REMARK   13  A    between atoms: _33  and  _34
REMARK   14  A    between atoms: _33  and  _36
REMARK   15  A    between atoms: _36  and  _37
REMARK   16  A    between atoms: _40  and  _42
REMARK   17  A    between atoms: _42  and  _43
REMARK   18  A    between atoms: _42  and  _45
REMARK   19  A    between atoms: _45  and  _46
REMARK   20  A    between atoms: _49  and  _51
REMARK   21  A    between atoms: _51  and  _52
REMARK   22  A    between atoms: _51  and  _54
REMARK   23  A    between atoms: _54  and  _55
REMARK   24  A    between atoms: _58  and  _60
REMARK   25  A    between atoms: _60  and  _61
REMARK   26  A    between atoms: _60  and  _63
REMARK   27  A    between atoms: _63  and  _64
REMARK   28  A    between atoms: _69  and  _71
REMARK   29  A    between atoms: _71  and  _72
REMARK   30  A    between atoms: _71  and  _74
REMARK   31  A    between atoms: _74  and  _75
REMARK   32  A    between atoms: _80  and  _81
REMARK   33  A    between atoms: _83  and  _85
REMARK   34  A    between atoms: _85  and  _86
REMARK   35  A    between atoms: _89  and  _91
REMARK   36  A    between atoms: _91  and  _92
REMARK   37  A    between atoms: _91  and  _94
REMARK   38  A    between atoms: _94  and  _95
REMARK   39  A    between atoms: _95  and  _96
REMARK   40  A    between atoms: _96  and  _97
REMARK   41  A    between atoms: _97  and  _98
REMARK   42  A    between atoms: _102  and  _104
REMARK   43  A    between atoms: _104  and  _105
REMARK   44  A    between atoms: _104  and  _107
REMARK   45  A    between atoms: _107  and  _108
REMARK   46  A    between atoms: _111  and  _113
REMARK   47  A    between atoms: _113  and  _114
REMARK   48  A    between atoms: _113  and  _116
REMARK   49  A    between atoms: _116  and  _117
REMARK   50  A    between atoms: _119  and  _121
REMARK   51  A    between atoms: _121  and  _122
REMARK   52  A    between atoms: _121  and  _124
REMARK   53  A    between atoms: _124  and  _125
REMARK   54  A    between atoms: _125  and  _235
REMARK   55  A    between atoms: _126  and  _128
REMARK   56  A    between atoms: _128  and  _129
REMARK   57  A    between atoms: _128  and  _131
REMARK   58  A    between atoms: _131  and  _132
REMARK   59  A    between atoms: _132  and  _133
REMARK   60  A    between atoms: _138  and  _140
REMARK   61  A    between atoms: _140  and  _141
REMARK   62  A    between atoms: _143  and  _145
REMARK   63  A    between atoms: _145  and  _146
REMARK   64  A    between atoms: _145  and  _148
REMARK   65  A    between atoms: _148  and  _149
REMARK   66  A    between atoms: _152  and  _154
REMARK   67  A    between atoms: _154  and  _155
REMARK   68  A    between atoms: _154  and  _157
REMARK   69  A    between atoms: _157  and  _158
REMARK   70  A    between atoms: _160  and  _162
REMARK   71  A    between atoms: _162  and  _163
REMARK   72  A    between atoms: _165  and  _167
REMARK   73  A    between atoms: _167  and  _168
REMARK   74  A    between atoms: _170  and  _172
REMARK   75  A    between atoms: _172  and  _173
REMARK   76  A    between atoms: _172  and  _175
REMARK   77  A    between atoms: _175  and  _176
REMARK   78  A    between atoms: _179  and  _181
REMARK   79  A    between atoms: _181  and  _182
REMARK   80  A    between atoms: _181  and  _184
REMARK   81  A    between atoms: _187  and  _189
REMARK   82  A    between atoms: _189  and  _190
REMARK   83  A    between atoms: _189  and  _192
REMARK   84  A    between atoms: _192  and  _193
REMARK   85  A    between atoms: _195  and  _197
REMARK   86  A    between atoms: _197  and  _198
REMARK   87  A    between atoms: _197  and  _200
REMARK   88  A    between atoms: _200  and  _201
REMARK   89  A    between atoms: _211  and  _213
REMARK   90  A    between atoms: _213  and  _214
REMARK   91  A    between atoms: _216  and  _218
REMARK   92  A    between atoms: _218  and  _219
REMARK   93  A    between atoms: _218  and  _221
REMARK   94  A    between atoms: _221  and  _222
REMARK   95  A    between atoms: _224  and  _226
REMARK   96  A    between atoms: _226  and  _227
REMARK   97  A    between atoms: _229  and  _231
REMARK   98  A    between atoms: _231  and  _232
REMARK   99  A    between atoms: _231  and  _234
REMARK  100  A    between atoms: _234  and  _235
REMARK  101  A    between atoms: _236  and  _238
REMARK  102  A    between atoms: _238  and  _239
REMARK  103  A    between atoms: _242  and  _244
REMARK  104  A    between atoms: _244  and  _245
REMARK  105  A    between atoms: _244  and  _247
REMARK  106  A    between atoms: _247  and  _248
REMARK  107  A    between atoms: _248  and  _249
REMARK  108  A    between atoms: _254  and  _256
REMARK  109  A    between atoms: _256  and  _257
REMARK  110  A    between atoms: _256  and  _259
REMARK  111  A    between atoms: _259  and  _260
REMARK  112  A    between atoms: _260  and  _261
REMARK  113  A    between atoms: _261  and  _262
REMARK  114  A    between atoms: _262  and  _263
REMARK  115  A    between atoms: _268  and  _269
REMARK  116  A    between atoms: _274  and  _276
REMARK  117  A    between atoms: _276  and  _277
REMARK  118  A    between atoms: _279  and  _281
REMARK  119  A    between atoms: _281  and  _282
REMARK  120  A    between atoms: _281  and  _284
REMARK  121  A    between atoms: _287  and  _289
REMARK  122  A    between atoms: _289  and  _290
REMARK  123  A    between atoms: _289  and  _292
REMARK  124  A    between atoms: _292  and  _293
REMARK  125  A    between atoms: _298  and  _299
REMARK                            x       y       z     vdW  Elec       q    Type
REMARK                         _______ _______ _______ _____ _____    ______ ____
ROOT
ATOM      1  CA  ALA A   1      49.930  57.506 -24.965  0.00  0.00    +0.133 C 
ATOM      2  CB  ALA A   1      49.678  57.105 -26.412  0.00  0.00    +0.027 C 
ENDROOT
BRANCH   1   3
ATOM      3  N   ALA A   1      48.968  58.524 -24.543  0.00  0.00    -0.239 NA
ATOM      4  H   ALA A   1      49.218  59.531 -24.621  0.00  0.00    +0.142 HD
ENDBRANCH   1   3
BRANCH   1   5
ATOM      5  C   ALA A   1      51.363  57.994 -24.798  0.00  0.00    +0.224 C 
ATOM      6  O   ALA A   1      51.663  59.166 -25.022  0.00  0.00    -0.287 OA
ENDBRANCH   1   5
TORSDOF 2
REMARK  Name = ../refined-set-2016/1v2u/1v2u_pocket.pdb
REMARK  125 active torsions:
REMARK  status: ('A' for Active; 'I' for Inactive)
REMARK    1  A    between atoms: _1  and  _5
REMARK    2  A    between atoms: _5  and  _6
REMARK    3  A    between atoms: _5  and  _8
REMARK    4  A    between atoms: _8  and  _9
REMARK    5  A    between atoms: _12  and  _14
REMARK    6  A    between atoms: _14  and  _15
REMARK    7  A    between atoms: _14  and  _17
REMARK    8  A    between atoms: _20  and  _22
REMARK    9  A    between atoms: _22  and  _23
REMARK   10  A    between atoms: _22  and  _25
REMARK   11  A    between atoms: _25  and  _26
REMARK   12  A    between atoms: _31  and  _33
REMARK   13  A    between atoms: _33  and  _34
REMARK   14  A    between atoms: _33  and  _36
REMARK   15  A    between atoms: _36  and  _37
REMARK   16  A    between atoms: _40  and  _42
REMARK   17  A    between atoms: _42  and  _43
REMARK   18  A    between atoms: _42  and  _45
REMARK   19  A    between atoms: _45  and  _46
REMARK   20  A    between atoms: _49  and  _51
REMARK   21  A    between atoms: _51  and  _52
REMARK   22  A    between atoms: _51  and  _54
REMARK   23  A    between atoms: _54  and  _55
REMARK   24  A    between atoms: _58  and  _60
REMARK   25  A    between atoms: _60  and  _61
REMARK   26  A    between atoms: _60  and  _63
REMARK   27  A    between atoms: _63  and  _64
REMARK   28  A    between atoms: _69  and  _71
REMARK   29  A    between atoms: _71  and  _72
REMARK   30  A    between atoms: _71  and  _74
REMARK   31  A    between atoms: _74  and  _75
REMARK   32  A    between atoms: _80  and  _81
REMARK   33  A    between atoms: _83  and  _85
REMARK   34  A    between atoms: _85  and  _86
REMARK   35  A    between atoms: _89  and  _91
REMARK   36  A    between atoms: _91  and  _92
REMARK   37  A    between atoms: _91  and  _94
REMARK   38  A    between atoms: _94  and  _95
REMARK   39  A    between atoms: _95  and  _96
REMARK   40  A    between atoms: _96  and  _97
REMARK   41  A    between atoms: _97  and  _98
REMARK   42  A    between atoms: _102  and  _104
REMARK   43  A    between atoms: _104  and  _105
REMARK   44  A    between atoms: _104  and  _107
REMARK   45  A    between atoms: _107  and  _108
REMARK   46  A    between atoms: _111  and  _113
REMARK   47  A    between atoms: _113  and  _114
REMARK   48  A    between atoms: _113  and  _116
REMARK   49  A    between atoms: _116  and  _117
REMARK   50  A    between atoms: _119  and  _121
REMARK   51  A    between atoms: _121  and  _122
REMARK   52  A    between atoms: _121  and  _124
REMARK   53  A    between atoms: _124  and  _125
REMARK   54  A    between atoms: _125  and  _235
REMARK   55  A    between atoms: _126  and  _128
REMARK   56  A    between atoms: _128  and  _129
REMARK   57  A    between atoms: _128  and  _131
REMARK   58  A    between atoms: _131  and  _132
REMARK   59  A    between atoms: _132  and  _133
REMARK   60  A    between atoms: _138  and  _140
REMARK   61  A    between atoms: _140  and  _141
REMARK   62  A    between atoms: _143  and  _145
REMARK   63  A    between atoms: _145  and  _146
REMARK   64  A    between atoms: _145  and  _148
REMARK   65  A    between atoms: _148  and  _149
REMARK   66  A    between atoms: _152  and  _154
REMARK   67  A    between atoms: _154  and  _155
REMARK   68  A    between atoms: _154  and  _157
REMARK   69  A    between atoms: _157  and  _158
REMARK   70  A    between atoms: _160  and  _162
REMARK   71  A    between atoms: _162  and  _163
REMARK   72  A    between atoms: _165  and  _167
REMARK   73  A    between atoms: _167  and  _168
REMARK   74  A    between atoms: _170  and  _172
REMARK   75  A    between atoms: _172  and  _173
REMARK   76  A    between atoms: _172  and  _175
REMARK   77  A    between atoms: _175  and  _176
REMARK   78  A    between atoms: _179  and  _181
REMARK   79  A    between atoms: _181  and  _182
REMARK   80  A    between atoms: _181  and  _184
REMARK   81  A    between atoms: _187  and  _189
REMARK   82  A    between atoms: _189  and  _190
REMARK   83  A    between atoms: _189  and  _192
REMARK   84  A    between atoms: _192  and  _193
REMARK   85  A    between atoms: _195  and  _197
REMARK   86  A    between atoms: _197  and  _198
REMARK   87  A    between atoms: _197  and  _200
REMARK   88  A    between atoms: _200  and  _201
REMARK   89  A    between atoms: _211  and  _213
REMARK   90  A    between atoms: _213  and  _214
REMARK   91  A    between atoms: _216  and  _218
REMARK   92  A    between atoms: _218  and  _219
REMARK   93  A    between atoms: _218  and  _221
REMARK   94  A    between atoms: _221  and  _222
REMARK   95  A    between atoms: _224  and  _226
REMARK   96  A    between atoms: _226  and  _227
REMARK   97  A    between atoms: _229  and  _231
REMARK   98  A    between atoms: _231  and  _232
REMARK   99  A    between atoms: _231  and  _234
REMARK  100  A    between atoms: _234  and  _235
REMARK  101  A    between atoms: _236  and  _238
REMARK  102  A    between atoms: _238  and  _239
REMARK  103  A    between atoms: _242  and  _244
REMARK  104  A    between atoms: _244  and  _245
REMARK  105  A    between atoms: _244  and  _247
REMARK  106  A    between atoms: _247  and  _248
REMARK  107  A    between atoms: _248  and  _249
REMARK  108  A    between atoms: _254  and  _256
REMARK  109  A    between atoms: _256  and  _257
REMARK  110  A    between atoms: _256  and  _259
REMARK  111  A    between atoms: _259  and  _260
REMARK  112  A    between atoms: _260  and  _261
REMARK  113  A    between atoms: _261  and  _262
REMARK  114  A    between atoms: _262  and  _263
REMARK  115  A    between atoms: _268  and  _269
REMARK  116  A    between atoms: _274  and  _276
REMARK  117  A    between atoms: _276  and  _277
REMARK  118  A    between atoms: _279  and  _281
REMARK  119  A    between atoms: _281  and  _282
REMARK  120  A    between atoms: _281  and  _284
REMARK  121  A    between atoms: _287  and  _289
REMARK  122  A    between atoms: _289  and  _290
REMARK  123  A    between atoms: _289  and  _292
REMARK  124  A    between atoms: _292  and  _293
REMARK  125  A    between atoms: _298  and  _299
REMARK                            x       y       z     vdW  Elec       q    Type
REMARK                         _______ _______ _______ _____ _____    ______ ____
ROOT
ATOM      1  CB  SER A   8      58.604  67.321 -26.852  0.00  0.00    +0.098 C 
ENDROOT
BRANCH   1   2
ATOM      2  SG  SER A   8      57.650  68.221 -28.101  0.00  0.00    -0.080 S 
BRANCH   2   3
ATOM      3  SG  TRP A   4      58.817  68.125 -29.757  0.00  0.00    -0.080 S 
BRANCH   3   4
ATOM      4  CB  TRP A   4      58.283  66.606 -30.607  0.00  0.00    +0.098 C 
BRANCH   4   5
ATOM      5  CA  TRP A   4      56.775  66.460 -30.853  0.00  0.00    +0.160 C 
BRANCH   5   6
ATOM      6  C   TRP A   4      56.310  67.342 -32.011  0.00  0.00    +0.242 C 
ATOM      7  N   GLN A   5      56.643  68.628 -31.966  0.00  0.00    -0.297 N 
ATOM      8  H   GLN A   5      57.199  68.988 -31.164  0.00  0.00    +0.150 HD
ATOM      9  O   TRP A   4      55.648  66.858 -32.928  0.00  0.00    -0.273 OA
BRANCH   7  10
ATOM     10  CA  GLN A   5      56.236  69.538 -33.030  0.00  0.00    +0.149 C 
BRANCH  10  11
ATOM     11  C   GLN A   5      56.746  69.059 -34.386  0.00  0.00    +0.241 C 
ATOM     12  O   GLN A   5      57.916  68.705 -34.533  0.00  0.00    -0.273 OA
ATOM     13  N   GLY A   6      55.854  69.044 -35.372  0.00  0.00    -0.295 N 
ATOM     14  H   GLY A   6      54.880  69.361 -35.190  0.00  0.00    +0.150 HD
BRANCH  13  15
ATOM     15  CA  GLY A   6      56.224  68.591 -36.697  0.00  0.00    +0.176 C 
BRANCH  15  16
ATOM     16  C   GLY A   6      55.663  67.204 -36.955  0.00  0.00    +0.243 C 
ATOM     17  N   ASP A   7      55.341  66.498 -35.874  0.00  0.00    -0.296 N 
ATOM     18  H   ASP A   7      55.498  66.920 -34.937  0.00  0.00    +0.150 HD
ATOM     19  O   GLY A   6      55.530  66.780 -38.103  0.00  0.00    -0.273 OA
BRANCH  17  20
ATOM     20  CA  ASP A   7      54.776  65.154 -35.952  0.00  0.00    +0.160 C 
BRANCH  20  21
ATOM     21  C   ASP A   7      53.249  65.238 -36.044  0.00  0.00    +0.241 C 
ATOM     22  N   SER A   8      52.700  66.392 -35.667  0.00  0.00    -0.295 N 
ATOM     23  H   SER A   8      53.320  67.167 -35.356  0.00  0.00    +0.150 HD
ATOM     24  O   ASP A   7      52.587  64.275 -36.437  0.00  0.00    -0.273 OA
BRANCH  22  25
ATOM     25  CA  SER A   8      51.255  66.601 -35.677  0.00  0.00    +0.178 C 
BRANCH  25  26
ATOM     26  C   SER A   8      50.565  66.094 -36.937  0.00  0.00    +0.243 C 
ATOM     27  N   GLY A   9      49.386  65.507 -36.749  0.00  0.00    -0.295 N 
ATOM     28  H   GLY A   9      49.006  65.425 -35.784  0.00  0.00    +0.150 HD
ATOM     29  O   SER A   8      51.086  66.233 -38.042  0.00  0.00    -0.273 OA
BRANCH  27  30
ATOM     30  CA  GLY A   9      48.619  64.979 -37.862  0.00  0.00    +0.176 C 
BRANCH  30  31
ATOM     31  C   GLY A   9      49.035  63.574 -38.252  0.00  0.00    +0.243 C 
ATOM     32  N   GLY A  10      50.175  63.135 -37.722  0.00  0.00    -0.296 N 
ATOM     33  H   GLY A  10      50.703  63.756 -37.076  0.00  0.00    +0.150 HD
ATOM     34  O   GLY A   9      48.335  62.902 -39.014  0.00  0.00    -0.273 OA
BRANCH  32  35
ATOM     35  CA  GLY A  10      50.702  61.814 -38.020  0.00  0.00    +0.163 C 
BRANCH  35  36
ATOM     36  C   GLY A  10      49.915  60.660 -37.426  0.00  0.00    +0.229 C 
ATOM     37  O   GLY A  10      49.031  60.865 -36.588  0.00  0.00    -0.286 OA
ENDBRANCH  35  36
ENDBRANCH  32  35
ENDBRANCH  30  31
ENDBRANCH  27  30
ENDBRANCH  25  26
BRANCH  25  38
ATOM     38  CB  SER A   8      50.935  68.086 -35.474  0.00  0.00    +0.166 C 
BRANCH  38  39
ATOM     39  OG  SER A   8      51.351  68.508 -34.185  0.00  0.00    -0.380 OA
ATOM     40  H   SER A   8      51.138  69.468 -34.069  0.00  0.00    +0.211 HD
ENDBRANCH  38  39
ENDBRANCH  25  38
ENDBRANCH  22  25
ENDBRANCH  20  21
BRANCH  20  41
ATOM     41  CB  ASP A   7      55.142  64.351 -34.696  0.00  0.00    +0.143 C 
BRANCH  41  42
ATOM     42  CG  ASP A   7      56.602  63.922 -34.663  0.00  0.00    +0.367 C 
ATOM     43  OD2 ASP A   7      57.165  63.859 -33.547  0.00  0.00    -0.246 OA
ATOM     44  OD1 ASP A   7      57.180  63.628 -35.733  0.00  0.00    -0.246 OA
ENDBRANCH  41  42
ENDBRANCH  20  41
ENDBRANCH  17  20
ENDBRANCH  15  16
ENDBRANCH  13  15
ENDBRANCH  10  11
BRANCH  10  45
ATOM     45  CB  GLN A   5      56.737  70.957 -32.742  0.00  0.00    +0.039 C 
BRANCH  45  46
ATOM     46  CG  GLN A   5      56.111  71.562 -31.495  0.00  0.00    +0.087 C 
BRANCH  46  47
ATOM     47  CD  GLN A   5      56.348  73.057 -31.379  0.00  0.00    +0.219 C 
ATOM     48  OE1 GLN A   5      57.484  73.510 -31.227  0.00  0.00    -0.275 OA
ATOM     49  NE2 GLN A   5      55.268  73.833 -31.454  0.00  0.00    -0.329 N 
ATOM     50 HE21 GLN A   5      55.364  74.866 -31.384  0.00  0.00    +0.145 HD
ATOM     51 HE22 GLN A   5      54.329  73.406 -31.583  0.00  0.00    +0.145 HD
ENDBRANCH  46  47
ENDBRANCH  45  46
ENDBRANCH  10  45
ENDBRANCH   7  10
ENDBRANCH   5   6
BRANCH   5  54
ATOM     52  C   SER A   3      56.279  64.235 -30.101  0.00  0.00    +0.243 C 
ATOM     53  O   SER A   3      56.300  64.632 -28.933  0.00  0.00    -0.273 OA
ATOM     54  N   TRP A   4      56.485  65.056 -31.120  0.00  0.00    -0.296 N 
ATOM     55  H   TRP A   4      56.440  64.704 -32.098  0.00  0.00    +0.150 HD
BRANCH  52  56
ATOM     56  CA  SER A   3      56.022  62.760 -30.399  0.00  0.00    +0.178 C 
BRANCH  56  58
ATOM     57  C   VAL A   2      57.280  61.784 -28.581  0.00  0.00    +0.241 C 
ATOM     58  N   SER A   3      56.107  62.174 -29.071  0.00  0.00    -0.295 N 
ATOM     59  H   SER A   3      55.245  62.059 -28.501  0.00  0.00    +0.150 HD
ATOM     60  O   VAL A   2      58.326  61.807 -29.245  0.00  0.00    -0.273 OA
BRANCH  57  61
ATOM     61  CA  VAL A   2      57.279  61.262 -27.144  0.00  0.00    +0.160 C 
BRANCH  61  64
ATOM     62  C   ILE A   1      58.732  60.014 -25.666  0.00  0.00    +0.238 C 
ATOM     63  O   ILE A   1      57.858  59.970 -24.799  0.00  0.00    -0.274 OA
ATOM     64  N   VAL A   2      58.539  60.590 -26.849  0.00  0.00    -0.297 N 
ATOM     65  H   VAL A   2      59.290  60.561 -27.567  0.00  0.00    +0.150 HD
BRANCH  62  66
ATOM     66  CA  ILE A   1      60.096  59.377 -25.425  0.00  0.00    +0.145 C 
BRANCH  66  67
ATOM     67  N   ILE A   1      60.680  59.915 -24.198  0.00  0.00    -0.238 NA
ATOM     68  H   ILE A   1      60.082  60.007 -23.352  0.00  0.00    +0.142 HD
ENDBRANCH  66  67
BRANCH  66  69
ATOM     69  CB  ILE A   1      59.949  57.859 -25.311  0.00  0.00    +0.026 C 
BRANCH  69  70
ATOM     70  CG  ILE A   1      61.264  57.115 -25.141  0.00  0.00    -0.000 C 
BRANCH  70  71
ATOM     71  CD  ILE A   1      61.029  55.617 -25.020  0.00  0.00    -0.024 C 
BRANCH  71  72
ATOM     72  CE  ILE A   1      62.342  54.854 -25.006  0.00  0.00    -0.086 C 
BRANCH  72  73
ATOM     73  NZ  ILE A   1      62.129  53.379 -24.970  0.00  0.00    +0.380 N 
ATOM     74  HZ1 ILE A   1      61.597  53.128 -24.112  0.00  0.00    -0.089 HD
ATOM     75  HZ2 ILE A   1      63.051  52.897 -24.961  0.00  0.00    -0.089 HD
ATOM     76  HZ3 ILE A   1      61.591  53.087 -25.811  0.00  0.00    -0.089 HD
ENDBRANCH  72  73
ENDBRANCH  71  72
ENDBRANCH  70  71
ENDBRANCH  69  70
ENDBRANCH  66  69
ENDBRANCH  62  66
ENDBRANCH  61  64
BRANCH  61  77
ATOM     77  CB  VAL A   2      57.125  62.445 -26.174  0.00  0.00    +0.143 C 
BRANCH  77  78
ATOM     78  CG  VAL A   2      55.733  63.057 -26.180  0.00  0.00    +0.367 C 
ATOM     79  OD2 VAL A   2      55.559  64.100 -25.516  0.00  0.00    -0.246 OA
ATOM     80  OD1 VAL A   2      54.816  62.507 -26.822  0.00  0.00    -0.246 OA
ENDBRANCH  77  78
ENDBRANCH  61  77
ENDBRANCH  57  61
ENDBRANCH  56  58
BRANCH  56  81
ATOM     81  CB  SER A   3      54.635  62.539 -31.023  0.00  0.00    +0.166 C 
BRANCH  81  82
ATOM     82  OG  SER A   3      53.594  63.018 -30.193  0.00  0.00    -0.380 OA
ATOM     83  H   SER A   3      53.621  62.543 -29.325  0.00  0.00    +0.211 HD
ENDBRANCH  81  82
ENDBRANCH  56  81
ENDBRANCH  52  56
ENDBRANCH   5  54
ENDBRANCH   4   5
ENDBRANCH   3   4
ENDBRANCH   2   3
ENDBRANCH   1   2
BRANCH   1  84
ATOM     84  CA  SER A   8      57.886  67.146 -25.515  0.00  0.00    +0.160 C 
BRANCH  84  85
ATOM     85  N   SER A   8      57.635  68.439 -24.887  0.00  0.00    -0.296 N 
ATOM     86  H   SER A   8      58.376  68.868 -24.296  0.00  0.00    +0.150 HD
ATOM     87  C   ASP A   7      56.484  69.083 -25.051  0.00  0.00    +0.243 C 
ATOM     88  O   ASP A   7      55.565  68.641 -25.745  0.00  0.00    -0.273 OA
BRANCH  87  89
ATOM     89  CA  ASP A   7      56.318  70.414 -24.335  0.00  0.00    +0.176 C 
BRANCH  89  90
ATOM     90  N   ASP A   7      54.902  70.529 -24.043  0.00  0.00    -0.295 N 
ATOM     91  C   GLY A   6      54.364  69.821 -23.055  0.00  0.00    +0.243 C 
ATOM     92  O   GLY A   6      55.024  69.090 -22.321  0.00  0.00    -0.273 OA
ATOM     93  H   ASP A   7      54.306  71.167 -24.608  0.00  0.00    +0.150 HD
BRANCH  91  94
ATOM     94  CA  GLY A   6      52.857  69.956 -22.870  0.00  0.00    +0.178 C 
BRANCH  94  95
ATOM     95  N   GLY A   6      52.282  68.865 -23.649  0.00  0.00    -0.295 N 
ATOM     96  H   GLY A   6      52.344  67.894 -23.281  0.00  0.00    +0.150 HD
ATOM     97  C   GLN A   5      51.682  69.075 -24.814  0.00  0.00    +0.243 C 
ATOM     98  O   GLN A   5      51.545  70.194 -25.307  0.00  0.00    -0.273 OA
BRANCH  97  99
ATOM     99  CA  GLN A   5      51.144  67.852 -25.525  0.00  0.00    +0.176 C 
BRANCH  99 100
ATOM    100  N   GLN A   5      50.448  68.262 -26.727  0.00  0.00    -0.295 N 
ATOM    101  H   GLN A   5      50.399  69.272 -26.970  0.00  0.00    +0.150 HD
ATOM    102  C   TRP A   4      49.871  67.371 -27.524  0.00  0.00    +0.241 C 
ATOM    103  O   TRP A   4      49.897  66.156 -27.315  0.00  0.00    -0.273 OA
BRANCH 102 104
ATOM    104  CA  TRP A   4      49.170  67.954 -28.743  0.00  0.00    +0.153 C 
BRANCH 104 105
ATOM    105  N   TRP A   4      48.478  66.974 -29.569  0.00  0.00    -0.297 N 
ATOM    106  H   TRP A   4      48.157  66.075 -29.155  0.00  0.00    +0.150 HD
ATOM    107  C   SER A   3      48.258  67.233 -30.854  0.00  0.00    +0.243 C 
ATOM    108  O   SER A   3      48.615  68.287 -31.378  0.00  0.00    -0.273 OA
BRANCH 107 109
ATOM    109  CA  SER A   3      47.518  66.174 -31.674  0.00  0.00    +0.178 C 
BRANCH 109 110
ATOM    110  N   SER A   3      48.231  64.918 -31.884  0.00  0.00    -0.295 N 
ATOM    111  H   SER A   3      48.458  64.316 -31.067  0.00  0.00    +0.150 HD
ATOM    112  C   VAL A   2      48.595  64.530 -33.103  0.00  0.00    +0.241 C 
ATOM    113  O   VAL A   2      48.403  65.219 -34.107  0.00  0.00    -0.273 OA
BRANCH 112 114
ATOM    114  CA  VAL A   2      49.289  63.172 -33.219  0.00  0.00    +0.148 C 
BRANCH 114 115
ATOM    115  N   VAL A   2      48.451  62.334 -34.078  0.00  0.00    -0.297 N 
ATOM    116  C   ILE A   1      47.186  62.079 -33.754  0.00  0.00    +0.238 C 
ATOM    117  O   ILE A   1      46.669  62.494 -32.715  0.00  0.00    -0.274 OA
ATOM    118  H   VAL A   2      48.849  61.933 -34.951  0.00  0.00    +0.150 HD
BRANCH 116 119
ATOM    119  CA  ILE A   1      46.373  61.217 -34.719  0.00  0.00    +0.145 C 
BRANCH 119 120
ATOM    120  N   ILE A   1      45.751  60.179 -33.911  0.00  0.00    -0.238 NA
ATOM    121  H   ILE A   1      45.216  60.466 -33.067  0.00  0.00    +0.142 HD
ENDBRANCH 119 120
BRANCH 119 122
ATOM    122  CB  ILE A   1      45.310  62.112 -35.399  0.00  0.00    +0.025 C 
ATOM    123  CG2 ILE A   1      45.988  63.226 -36.211  0.00  0.00    +0.002 C 
BRANCH 122 124
ATOM    124  CG1 ILE A   1      44.431  61.268 -36.324  0.00  0.00    +0.002 C 
ATOM    125  CD1 ILE A   1      43.226  62.011 -36.860  0.00  0.00    +0.000 C 
ENDBRANCH 122 124
ENDBRANCH 119 122
ENDBRANCH 116 119
ENDBRANCH 114 115
BRANCH 114 126
ATOM    126  CB  VAL A   2      50.697  63.375 -33.827  0.00  0.00    +0.027 C 
ATOM    127  CG2 VAL A   2      51.547  64.236 -32.896  0.00  0.00    +0.002 C 
ATOM    128  CG1 VAL A   2      51.364  62.017 -34.072  0.00  0.00    +0.002 C 
ENDBRANCH 114 126
ENDBRANCH 112 114
ENDBRANCH 109 110
BRANCH 109 129
ATOM    129  CB  SER A   3      46.154  65.875 -31.034  0.00  0.00    +0.166 C 
BRANCH 129 130
ATOM    130  OG  SER A   3      45.350  67.035 -30.941  0.00  0.00    -0.380 OA
ATOM    131  H   SER A   3      45.194  67.401 -31.848  0.00  0.00    +0.211 HD
ENDBRANCH 129 130
ENDBRANCH 109 129
ENDBRANCH 107 109
ENDBRANCH 104 105
BRANCH 104 132
ATOM    132  CB  TRP A   4      48.200  69.059 -28.288  0.00  0.00    +0.057 C 
BRANCH 132 133
ATOM    133  CG  TRP A   4      47.008  68.580 -27.489  0.00  0.00    -0.002 A 
ATOM    134  CD2 TRP A   4      46.836  68.661 -26.064  0.00  0.00    +0.013 A 
ATOM    135  CE3 TRP A   4      47.630  69.144 -25.014  0.00  0.00    +0.001 A 
ATOM    136  CZ3 TRP A   4      47.137  69.064 -23.710  0.00  0.00    +0.000 A 
ATOM    137  CH2 TRP A   4      45.867  68.512 -23.446  0.00  0.00    +0.001 A 
ATOM    138  CZ2 TRP A   4      45.071  68.034 -24.457  0.00  0.00    +0.017 A 
ATOM    139  CE2 TRP A   4      45.567  68.113 -25.765  0.00  0.00    +0.056 A 
ATOM    140  NE1 TRP A   4      45.000  67.719 -26.948  0.00  0.00    -0.352 N 
ATOM    141  HE1 TRP A   4      44.064  67.278 -27.052  0.00  0.00    +0.166 HD
ATOM    142  CD1 TRP A   4      45.871  68.001 -27.977  0.00  0.00    +0.068 A 
ENDBRANCH 132 133
ENDBRANCH 104 132
ENDBRANCH 102 104
ENDBRANCH  99 100
ENDBRANCH  97  99
ENDBRANCH  94  95
BRANCH  94 143
ATOM    143  CB  GLY A   6      52.480  69.797 -21.395  0.00  0.00    +0.166 C 
BRANCH 143 144
ATOM    144  O   GLY A   6      52.894  70.919 -20.639  0.00  0.00    -0.380 OA
ATOM    145  H   GLY A   6      52.638  70.790 -19.691  0.00  0.00    +0.211 HD
ENDBRANCH 143 144
ENDBRANCH  94 143
ENDBRANCH  91  94
ENDBRANCH  89  90
ENDBRANCH  87  89
ENDBRANCH  84  85
BRANCH  84 146
ATOM    146  C   SER A   8      58.737  66.254 -24.627  0.00  0.00    +0.242 C 
ATOM    147  O   SER A   8      59.775  66.684 -24.119  0.00  0.00    -0.273 OA
ATOM    148  N   GLY A   9      58.295  65.012 -24.454  0.00  0.00    -0.297 N 
ATOM    149  H   GLY A   9      57.402  64.732 -24.907  0.00  0.00    +0.150 HD
BRANCH 148 150
ATOM    150  CA  GLY A   9      59.014  64.025 -23.653  0.00  0.00    +0.149 C 
ATOM    151  CB  GLY A   9      60.311  63.640 -24.356  0.00  0.00    +0.031 C 
BRANCH 150 152
ATOM    152  C   GLY A   9      59.312  64.483 -22.228  0.00  0.00    +0.241 C 
ATOM    153  N   GLY A  10      58.391  65.249 -21.653  0.00  0.00    -0.298 N 
ATOM    154  H   GLY A  10      57.538  65.499 -22.193  0.00  0.00    +0.150 HD
ATOM    155  O   GLY A   9      60.352  64.140 -21.664  0.00  0.00    -0.273 OA
BRANCH 153 156
ATOM    156  CA  GLY A  10      58.534  65.752 -20.291  0.00  0.00    +0.137 C 
BRANCH 156 157
ATOM    157  C   GLY A  10      57.916  64.791 -19.275  0.00  0.00    +0.227 C 
ATOM    158  O   GLY A  10      56.891  64.165 -19.541  0.00  0.00    -0.286 OA
ENDBRANCH 156 157
BRANCH 156 159
ATOM    159  CB  GLY A  10      57.862  67.121 -20.170  0.00  0.00    +0.037 C 
BRANCH 159 160
ATOM    160  CG  GLY A  10      58.483  68.187 -21.054  0.00  0.00    +0.087 C 
BRANCH 160 161
ATOM    161  CD  GLY A  10      59.950  68.402 -20.743  0.00  0.00    +0.219 C 
ATOM    162  OE1 GLY A  10      60.306  68.840 -19.646  0.00  0.00    -0.275 OA
ATOM    163  NE2 GLY A  10      60.814  68.086 -21.704  0.00  0.00    -0.329 N 
ATOM    164 HE21 GLY A  10      61.835  68.205 -21.545  0.00  0.00    +0.145 HD
ATOM    165 HE22 GLY A  10      60.469  67.720 -22.614  0.00  0.00    +0.145 HD
ENDBRANCH 160 161
ENDBRANCH 159 160
ENDBRANCH 156 159
ENDBRANCH 153 156
ENDBRANCH 150 152
ENDBRANCH 148 150
ENDBRANCH  84 146
ENDBRANCH   1  84
TORSDOF 73
REMARK  Name = ../refined-set-2016/1v2u/1v2u_pocket.pdb
REMARK  125 active torsions:
REMARK  status: ('A' for Active; 'I' for Inactive)
REMARK    1  A    between atoms: _1  and  _5
REMARK    2  A    between atoms: _5  and  _6
REMARK    3  A    between atoms: _5  and  _8
REMARK    4  A    between atoms: _8  and  _9
REMARK    5  A    between atoms: _12  and  _14
REMARK    6  A    between atoms: _14  and  _15
REMARK    7  A    between atoms: _14  and  _17
REMARK    8  A    between atoms: _20  and  _22
REMARK    9  A    between atoms: _22  and  _23
REMARK   10  A    between atoms: _22  and  _25
REMARK   11  A    between atoms: _25  and  _26
REMARK   12  A    between atoms: _31  and  _33
REMARK   13  A    between atoms: _33  and  _34
REMARK   14  A    between atoms: _33  and  _36
REMARK   15  A    between atoms: _36  and  _37
REMARK   16  A    between atoms: _40  and  _42
REMARK   17  A    between atoms: _42  and  _43
REMARK   18  A    between atoms: _42  and  _45
REMARK   19  A    between atoms: _45  and  _46
REMARK   20  A    between atoms: _49  and  _51
REMARK   21  A    between atoms: _51  and  _52
REMARK   22  A    between atoms: _51  and  _54
REMARK   23  A    between atoms: _54  and  _55
REMARK   24  A    between atoms: _58  and  _60
REMARK   25  A    between atoms: _60  and  _61
REMARK   26  A    between atoms: _60  and  _63
REMARK   27  A    between atoms: _63  and  _64
REMARK   28  A    between atoms: _69  and  _71
REMARK   29  A    between atoms: _71  and  _72
REMARK   30  A    between atoms: _71  and  _74
REMARK   31  A    between atoms: _74  and  _75
REMARK   32  A    between atoms: _80  and  _81
REMARK   33  A    between atoms: _83  and  _85
REMARK   34  A    between atoms: _85  and  _86
REMARK   35  A    between atoms: _89  and  _91
REMARK   36  A    between atoms: _91  and  _92
REMARK   37  A    between atoms: _91  and  _94
REMARK   38  A    between atoms: _94  and  _95
REMARK   39  A    between atoms: _95  and  _96
REMARK   40  A    between atoms: _96  and  _97
REMARK   41  A    between atoms: _97  and  _98
REMARK   42  A    between atoms: _102  and  _104
REMARK   43  A    between atoms: _104  and  _105
REMARK   44  A    between atoms: _104  and  _107
REMARK   45  A    between atoms: _107  and  _108
REMARK   46  A    between atoms: _111  and  _113
REMARK   47  A    between atoms: _113  and  _114
REMARK   48  A    between atoms: _113  and  _116
REMARK   49  A    between atoms: _116  and  _117
REMARK   50  A    between atoms: _119  and  _121
REMARK   51  A    between atoms: _121  and  _122
REMARK   52  A    between atoms: _121  and  _124
REMARK   53  A    between atoms: _124  and  _125
REMARK   54  A    between atoms: _125  and  _235
REMARK   55  A    between atoms: _126  and  _128
REMARK   56  A    between atoms: _128  and  _129
REMARK   57  A    between atoms: _128  and  _131
REMARK   58  A    between atoms: _131  and  _132
REMARK   59  A    between atoms: _132  and  _133
REMARK   60  A    between atoms: _138  and  _140
REMARK   61  A    between atoms: _140  and  _141
REMARK   62  A    between atoms: _143  and  _145
REMARK   63  A    between atoms: _145  and  _146
REMARK   64  A    between atoms: _145  and  _148
REMARK   65  A    between atoms: _148  and  _149
REMARK   66  A    between atoms: _152  and  _154
REMARK   67  A    between atoms: _154  and  _155
REMARK   68  A    between atoms: _154  and  _157
REMARK   69  A    between atoms: _157  and  _158
REMARK   70  A    between atoms: _160  and  _162
REMARK   71  A    between atoms: _162  and  _163
REMARK   72  A    between atoms: _165  and  _167
REMARK   73  A    between atoms: _167  and  _168
REMARK   74  A    between atoms: _170  and  _172
REMARK   75  A    between atoms: _172  and  _173
REMARK   76  A    between atoms: _172  and  _175
REMARK   77  A    between atoms: _175  and  _176
REMARK   78  A    between atoms: _179  and  _181
REMARK   79  A    between atoms: _181  and  _182
REMARK   80  A    between atoms: _181  and  _184
REMARK   81  A    between atoms: _187  and  _189
REMARK   82  A    between atoms: _189  and  _190
REMARK   83  A    between atoms: _189  and  _192
REMARK   84  A    between atoms: _192  and  _193
REMARK   85  A    between atoms: _195  and  _197
REMARK   86  A    between atoms: _197  and  _198
REMARK   87  A    between atoms: _197  and  _200
REMARK   88  A    between atoms: _200  and  _201
REMARK   89  A    between atoms: _211  and  _213
REMARK   90  A    between atoms: _213  and  _214
REMARK   91  A    between atoms: _216  and  _218
REMARK   92  A    between atoms: _218  and  _219
REMARK   93  A    between atoms: _218  and  _221
REMARK   94  A    between atoms: _221  and  _222
REMARK   95  A    between atoms: _224  and  _226
REMARK   96  A    between atoms: _226  and  _227
REMARK   97  A    between atoms: _229  and  _231
REMARK   98  A    between atoms: _231  and  _232
REMARK   99  A    between atoms: _231  and  _234
REMARK  100  A    between atoms: _234  and  _235
REMARK  101  A    between atoms: _236  and  _238
REMARK  102  A    between atoms: _238  and  _239
REMARK  103  A    between atoms: _242  and  _244
REMARK  104  A    between atoms: _244  and  _245
REMARK  105  A    between atoms: _244  and  _247
REMARK  106  A    between atoms: _247  and  _248
REMARK  107  A    between atoms: _248  and  _249
REMARK  108  A    between atoms: _254  and  _256
REMARK  109  A    between atoms: _256  and  _257
REMARK  110  A    between atoms: _256  and  _259
REMARK  111  A    between atoms: _259  and  _260
REMARK  112  A    between atoms: _260  and  _261
REMARK  113  A    between atoms: _261  and  _262
REMARK  114  A    between atoms: _262  and  _263
REMARK  115  A    between atoms: _268  and  _269
REMARK  116  A    between atoms: _274  and  _276
REMARK  117  A    between atoms: _276  and  _277
REMARK  118  A    between atoms: _279  and  _281
REMARK  119  A    between atoms: _281  and  _282
REMARK  120  A    between atoms: _281  and  _284
REMARK  121  A    between atoms: _287  and  _289
REMARK  122  A    between atoms: _289  and  _290
REMARK  123  A    between atoms: _289  and  _292
REMARK  124  A    between atoms: _292  and  _293
REMARK  125  A    between atoms: _298  and  _299
REMARK                            x       y       z     vdW  Elec       q    Type
REMARK                         _______ _______ _______ _____ _____    ______ ____
ROOT
ATOM      1  C   GLY A   3      49.773  62.723 -25.511  0.00  0.00    +0.243 C 
ATOM      2  O   GLY A   3      49.275  61.737 -24.967  0.00  0.00    -0.273 OA
ATOM      3  N   VAL A   4      49.049  63.647 -26.138  0.00  0.00    -0.297 N 
ATOM      4  H   VAL A   4      49.533  64.462 -26.565  0.00  0.00    +0.150 HD
ENDROOT
BRANCH   1   5
ATOM      5  CA  GLY A   3      51.277  62.946 -25.499  0.00  0.00    +0.176 C 
BRANCH   5   8
ATOM      6  C   PRO A   2      51.939  62.787 -23.186  0.00  0.00    +0.241 C 
ATOM      7  O   PRO A   2      51.261  63.771 -22.908  0.00  0.00    -0.273 OA
ATOM      8  N   GLY A   3      52.005  62.298 -24.420  0.00  0.00    -0.295 N 
ATOM      9  H   GLY A   3      52.577  61.452 -24.614  0.00  0.00    +0.150 HD
BRANCH   6  15
ATOM     10  C   LYS A   1      53.414  63.920 -20.645  0.00  0.00    +0.241 C 
ATOM     11  N   PRO A   2      52.682  62.808 -20.835  0.00  0.00    -0.272 N 
ATOM     12  CD  PRO A   2      51.917  62.058 -19.822  0.00  0.00    +0.094 C 
ATOM     13  CG  PRO A   2      51.208  61.020 -20.655  0.00  0.00    +0.024 C 
ATOM     14  CB  PRO A   2      52.194  60.699 -21.729  0.00  0.00    +0.031 C 
ATOM     15  CA  PRO A   2      52.753  62.070 -22.100  0.00  0.00    +0.152 C 
ATOM     16  O   LYS A   1      54.178  64.352 -21.509  0.00  0.00    -0.273 OA
BRANCH  10  17
ATOM     17  CA  LYS A   1      53.271  64.631 -19.302  0.00  0.00    +0.145 C 
BRANCH  17  18
ATOM     18  N   LYS A   1      54.074  64.107 -18.203  0.00  0.00    -0.238 NA
ATOM     19  H   LYS A   1      55.084  63.905 -18.347  0.00  0.00    +0.142 HD
ENDBRANCH  17  18
BRANCH  17  20
ATOM     20  CB  LYS A   1      53.587  66.120 -19.469  0.00  0.00    +0.026 C 
BRANCH  20  21
ATOM     21  CG  LYS A   1      53.417  66.900 -18.179  0.00  0.00    -0.000 C 
BRANCH  21  22
ATOM     22  CD  LYS A   1      53.910  68.331 -18.286  0.00  0.00    -0.024 C 
BRANCH  22  23
ATOM     23  CE  LYS A   1      53.765  69.038 -16.942  0.00  0.00    -0.086 C 
BRANCH  23  24
ATOM     24  NZ  LYS A   1      54.297  70.427 -16.955  0.00  0.00    +0.380 N 
ATOM     25  HZ1 LYS A   1      54.170  70.854 -16.015  0.00  0.00    -0.089 HD
ATOM     26  HZ2 LYS A   1      55.309  70.407 -17.194  0.00  0.00    -0.089 HD
ATOM     27  HZ3 LYS A   1      53.783  70.987 -17.664  0.00  0.00    -0.089 HD
ENDBRANCH  23  24
ENDBRANCH  22  23
ENDBRANCH  21  22
ENDBRANCH  20  21
ENDBRANCH  17  20
ENDBRANCH  10  17
ENDBRANCH   6  15
ENDBRANCH   5   8
ENDBRANCH   1   5
BRANCH   3  28
ATOM     28  CA  VAL A   4      47.596  63.552 -26.246  0.00  0.00    +0.149 C 
BRANCH  28  29
ATOM     29  C   VAL A   4      47.265  63.375 -27.724  0.00  0.00    +0.241 C 
ATOM     30  N   TYR A   5      46.442  62.375 -28.015  0.00  0.00    -0.298 N 
ATOM     31  H   TYR A   5      46.038  61.812 -27.239  0.00  0.00    +0.150 HD
ATOM     32  O   VAL A   4      47.744  64.132 -28.578  0.00  0.00    -0.273 OA
BRANCH  30  33
ATOM     33  CA  TYR A   5      46.088  62.042 -29.386  0.00  0.00    +0.141 C 
BRANCH  33  34
ATOM     34  C   TYR A   5      44.594  61.989 -29.651  0.00  0.00    +0.227 C 
ATOM     35  O   TYR A   5      43.806  61.646 -28.771  0.00  0.00    -0.286 OA
ENDBRANCH  33  34
BRANCH  33  36
ATOM     36  CB  TYR A   5      46.698  60.687 -29.733  0.00  0.00    +0.054 C 
BRANCH  36  37
ATOM     37  CG  TYR A   5      48.190  60.641 -29.531  0.00  0.00    -0.020 A 
ATOM     38  CD2 TYR A   5      48.738  60.380 -28.272  0.00  0.00    -0.001 A 
ATOM     39  CE2 TYR A   5      50.115  60.393 -28.072  0.00  0.00    +0.036 A 
ATOM     40  CZ  TYR A   5      50.957  60.665 -29.143  0.00  0.00    +0.134 A 
ATOM     41  CE1 TYR A   5      50.436  60.919 -30.401  0.00  0.00    +0.036 A 
ATOM     42  CD1 TYR A   5      49.060  60.907 -30.588  0.00  0.00    -0.001 A 
BRANCH  40  43
ATOM     43  OH  TYR A   5      52.320  60.703 -28.968  0.00  0.00    -0.506 OA
ATOM     44  HH  TYR A   5      52.634  59.823 -28.640  0.00  0.00    +0.292 HD
ENDBRANCH  40  43
ENDBRANCH  36  37
ENDBRANCH  33  36
ENDBRANCH  30  33
ENDBRANCH  28  29
BRANCH  28  45
ATOM     45  CB  VAL A   4      46.906  64.815 -25.699  0.00  0.00    +0.027 C 
ATOM     46  CG2 VAL A   4      47.416  65.110 -24.291  0.00  0.00    +0.002 C 
ATOM     47  CG1 VAL A   4      45.395  64.624 -25.688  0.00  0.00    +0.002 C 
ENDBRANCH  28  45
ENDBRANCH   3  28
TORSDOF 18
REMARK  Name = ../refined-set-2016/1v2u/1v2u_pocket.pdb
REMARK  125 active torsions:
REMARK  status: ('A' for Active; 'I' for Inactive)
REMARK    1  A    between atoms: _1  and  _5
REMARK    2  A    between atoms: _5  and  _6
REMARK    3  A    between atoms: _5  and  _8
REMARK    4  A    between atoms: _8  and  _9
REMARK    5  A    between atoms: _12  and  _14
REMARK    6  A    between atoms: _14  and  _15
REMARK    7  A    between atoms: _14  and  _17
REMARK    8  A    between atoms: _20  and  _22
REMARK    9  A    between atoms: _22  and  _23
REMARK   10  A    between atoms: _22  and  _25
REMARK   11  A    between atoms: _25  and  _26
REMARK   12  A    between atoms: _31  and  _33
REMARK   13  A    between atoms: _33  and  _34
REMARK   14  A    between atoms: _33  and  _36
REMARK   15  A    between atoms: _36  and  _37
REMARK   16  A    between atoms: _40  and  _42
REMARK   17  A    between atoms: _42  and  _43
REMARK   18  A    between atoms: _42  and  _45
REMARK   19  A    between atoms: _45  and  _46
REMARK   20  A    between atoms: _49  and  _51
REMARK   21  A    between atoms: _51  and  _52
REMARK   22  A    between atoms: _51  and  _54
REMARK   23  A    between atoms: _54  and  _55
REMARK   24  A    between atoms: _58  and  _60
REMARK   25  A    between atoms: _60  and  _61
REMARK   26  A    between atoms: _60  and  _63
REMARK   27  A    between atoms: _63  and  _64
REMARK   28  A    between atoms: _69  and  _71
REMARK   29  A    between atoms: _71  and  _72
REMARK   30  A    between atoms: _71  and  _74
REMARK   31  A    between atoms: _74  and  _75
REMARK   32  A    between atoms: _80  and  _81
REMARK   33  A    between atoms: _83  and  _85
REMARK   34  A    between atoms: _85  and  _86
REMARK   35  A    between atoms: _89  and  _91
REMARK   36  A    between atoms: _91  and  _92
REMARK   37  A    between atoms: _91  and  _94
REMARK   38  A    between atoms: _94  and  _95
REMARK   39  A    between atoms: _95  and  _96
REMARK   40  A    between atoms: _96  and  _97
REMARK   41  A    between atoms: _97  and  _98
REMARK   42  A    between atoms: _102  and  _104
REMARK   43  A    between atoms: _104  and  _105
REMARK   44  A    between atoms: _104  and  _107
REMARK   45  A    between atoms: _107  and  _108
REMARK   46  A    between atoms: _111  and  _113
REMARK   47  A    between atoms: _113  and  _114
REMARK   48  A    between atoms: _113  and  _116
REMARK   49  A    between atoms: _116  and  _117
REMARK   50  A    between atoms: _119  and  _121
REMARK   51  A    between atoms: _121  and  _122
REMARK   52  A    between atoms: _121  and  _124
REMARK   53  A    between atoms: _124  and  _125
REMARK   54  A    between atoms: _125  and  _235
REMARK   55  A    between atoms: _126  and  _128
REMARK   56  A    between atoms: _128  and  _129
REMARK   57  A    between atoms: _128  and  _131
REMARK   58  A    between atoms: _131  and  _132
REMARK   59  A    between atoms: _132  and  _133
REMARK   60  A    between atoms: _138  and  _140
REMARK   61  A    between atoms: _140  and  _141
REMARK   62  A    between atoms: _143  and  _145
REMARK   63  A    between atoms: _145  and  _146
REMARK   64  A    between atoms: _145  and  _148
REMARK   65  A    between atoms: _148  and  _149
REMARK   66  A    between atoms: _152  and  _154
REMARK   67  A    between atoms: _154  and  _155
REMARK   68  A    between atoms: _154  and  _157
REMARK   69  A    between atoms: _157  and  _158
REMARK   70  A    between atoms: _160  and  _162
REMARK   71  A    between atoms: _162  and  _163
REMARK   72  A    between atoms: _165  and  _167
REMARK   73  A    between atoms: _167  and  _168
REMARK   74  A    between atoms: _170  and  _172
REMARK   75  A    between atoms: _172  and  _173
REMARK   76  A    between atoms: _172  and  _175
REMARK   77  A    between atoms: _175  and  _176
REMARK   78  A    between atoms: _179  and  _181
REMARK   79  A    between atoms: _181  and  _182
REMARK   80  A    between atoms: _181  and  _184
REMARK   81  A    between atoms: _187  and  _189
REMARK   82  A    between atoms: _189  and  _190
REMARK   83  A    between atoms: _189  and  _192
REMARK   84  A    between atoms: _192  and  _193
REMARK   85  A    between atoms: _195  and  _197
REMARK   86  A    between atoms: _197  and  _198
REMARK   87  A    between atoms: _197  and  _200
REMARK   88  A    between atoms: _200  and  _201
REMARK   89  A    between atoms: _211  and  _213
REMARK   90  A    between atoms: _213  and  _214
REMARK   91  A    between atoms: _216  and  _218
REMARK   92  A    between atoms: _218  and  _219
REMARK   93  A    between atoms: _218  and  _221
REMARK   94  A    between atoms: _221  and  _222
REMARK   95  A    between atoms: _224  and  _226
REMARK   96  A    between atoms: _226  and  _227
REMARK   97  A    between atoms: _229  and  _231
REMARK   98  A    between atoms: _231  and  _232
REMARK   99  A    between atoms: _231  and  _234
REMARK  100  A    between atoms: _234  and  _235
REMARK  101  A    between atoms: _236  and  _238
REMARK  102  A    between atoms: _238  and  _239
REMARK  103  A    between atoms: _242  and  _244
REMARK  104  A    between atoms: _244  and  _245
REMARK  105  A    between atoms: _244  and  _247
REMARK  106  A    between atoms: _247  and  _248
REMARK  107  A    between atoms: _248  and  _249
REMARK  108  A    between atoms: _254  and  _256
REMARK  109  A    between atoms: _256  and  _257
REMARK  110  A    between atoms: _256  and  _259
REMARK  111  A    between atoms: _259  and  _260
REMARK  112  A    between atoms: _260  and  _261
REMARK  113  A    between atoms: _261  and  _262
REMARK  114  A    between atoms: _262  and  _263
REMARK  115  A    between atoms: _268  and  _269
REMARK  116  A    between atoms: _274  and  _276
REMARK  117  A    between atoms: _276  and  _277
REMARK  118  A    between atoms: _279  and  _281
REMARK  119  A    between atoms: _281  and  _282
REMARK  120  A    between atoms: _281  and  _284
REMARK  121  A    between atoms: _287  and  _289
REMARK  122  A    between atoms: _289  and  _290
REMARK  123  A    between atoms: _289  and  _292
REMARK  124  A    between atoms: _292  and  _293
REMARK  125  A    between atoms: _298  and  _299
REMARK                            x       y       z     vdW  Elec       q    Type
REMARK                         _______ _______ _______ _____ _____    ______ ____
ROOT
ATOM      1  O   HOH     1      53.566  60.186 -26.854  0.00  0.00    +0.000 OA
ENDROOT
TORSDOF 0
REMARK  Name = ../refined-set-2016/1v2u/1v2u_pocket.pdb
REMARK  125 active torsions:
REMARK  status: ('A' for Active; 'I' for Inactive)
REMARK    1  A    between atoms: _1  and  _5
REMARK    2  A    between atoms: _5  and  _6
REMARK    3  A    between atoms: _5  and  _8
REMARK    4  A    between atoms: _8  and  _9
REMARK    5  A    between atoms: _12  and  _14
REMARK    6  A    between atoms: _14  and  _15
REMARK    7  A    between atoms: _14  and  _17
REMARK    8  A    between atoms: _20  and  _22
REMARK    9  A    between atoms: _22  and  _23
REMARK   10  A    between atoms: _22  and  _25
REMARK   11  A    between atoms: _25  and  _26
REMARK   12  A    between atoms: _31  and  _33
REMARK   13  A    between atoms: _33  and  _34
REMARK   14  A    between atoms: _33  and  _36
REMARK   15  A    between atoms: _36  and  _37
REMARK   16  A    between atoms: _40  and  _42
REMARK   17  A    between atoms: _42  and  _43
REMARK   18  A    between atoms: _42  and  _45
REMARK   19  A    between atoms: _45  and  _46
REMARK   20  A    between atoms: _49  and  _51
REMARK   21  A    between atoms: _51  and  _52
REMARK   22  A    between atoms: _51  and  _54
REMARK   23  A    between atoms: _54  and  _55
REMARK   24  A    between atoms: _58  and  _60
REMARK   25  A    between atoms: _60  and  _61
REMARK   26  A    between atoms: _60  and  _63
REMARK   27  A    between atoms: _63  and  _64
REMARK   28  A    between atoms: _69  and  _71
REMARK   29  A    between atoms: _71  and  _72
REMARK   30  A    between atoms: _71  and  _74
REMARK   31  A    between atoms: _74  and  _75
REMARK   32  A    between atoms: _80  and  _81
REMARK   33  A    between atoms: _83  and  _85
REMARK   34  A    between atoms: _85  and  _86
REMARK   35  A    between atoms: _89  and  _91
REMARK   36  A    between atoms: _91  and  _92
REMARK   37  A    between atoms: _91  and  _94
REMARK   38  A    between atoms: _94  and  _95
REMARK   39  A    between atoms: _95  and  _96
REMARK   40  A    between atoms: _96  and  _97
REMARK   41  A    between atoms: _97  and  _98
REMARK   42  A    between atoms: _102  and  _104
REMARK   43  A    between atoms: _104  and  _105
REMARK   44  A    between atoms: _104  and  _107
REMARK   45  A    between atoms: _107  and  _108
REMARK   46  A    between atoms: _111  and  _113
REMARK   47  A    between atoms: _113  and  _114
REMARK   48  A    between atoms: _113  and  _116
REMARK   49  A    between atoms: _116  and  _117
REMARK   50  A    between atoms: _119  and  _121
REMARK   51  A    between atoms: _121  and  _122
REMARK   52  A    between atoms: _121  and  _124
REMARK   53  A    between atoms: _124  and  _125
REMARK   54  A    between atoms: _125  and  _235
REMARK   55  A    between atoms: _126  and  _128
REMARK   56  A    between atoms: _128  and  _129
REMARK   57  A    between atoms: _128  and  _131
REMARK   58  A    between atoms: _131  and  _132
REMARK   59  A    between atoms: _132  and  _133
REMARK   60  A    between atoms: _138  and  _140
REMARK   61  A    between atoms: _140  and  _141
REMARK   62  A    between atoms: _143  and  _145
REMARK   63  A    between atoms: _145  and  _146
REMARK   64  A    between atoms: _145  and  _148
REMARK   65  A    between atoms: _148  and  _149
REMARK   66  A    between atoms: _152  and  _154
REMARK   67  A    between atoms: _154  and  _155
REMARK   68  A    between atoms: _154  and  _157
REMARK   69  A    between atoms: _157  and  _158
REMARK   70  A    between atoms: _160  and  _162
REMARK   71  A    between atoms: _162  and  _163
REMARK   72  A    between atoms: _165  and  _167
REMARK   73  A    between atoms: _167  and  _168
REMARK   74  A    between atoms: _170  and  _172
REMARK   75  A    between atoms: _172  and  _173
REMARK   76  A    between atoms: _172  and  _175
REMARK   77  A    between atoms: _175  and  _176
REMARK   78  A    between atoms: _179  and  _181
REMARK   79  A    between atoms: _181  and  _182
REMARK   80  A    between atoms: _181  and  _184
REMARK   81  A    between atoms: _187  and  _189
REMARK   82  A    between atoms: _189  and  _190
REMARK   83  A    between atoms: _189  and  _192
REMARK   84  A    between atoms: _192  and  _193
REMARK   85  A    between atoms: _195  and  _197
REMARK   86  A    between atoms: _197  and  _198
REMARK   87  A    between atoms: _197  and  _200
REMARK   88  A    between atoms: _200  and  _201
REMARK   89  A    between atoms: _211  and  _213
REMARK   90  A    between atoms: _213  and  _214
REMARK   91  A    between atoms: _216  and  _218
REMARK   92  A    between atoms: _218  and  _219
REMARK   93  A    between atoms: _218  and  _221
REMARK   94  A    between atoms: _221  and  _222
REMARK   95  A    between atoms: _224  and  _226
REMARK   96  A    between atoms: _226  and  _227
REMARK   97  A    between atoms: _229  and  _231
REMARK   98  A    between atoms: _231  and  _232
REMARK   99  A    between atoms: _231  and  _234
REMARK  100  A    between atoms: _234  and  _235
REMARK  101  A    between atoms: _236  and  _238
REMARK  102  A    between atoms: _238  and  _239
REMARK  103  A    between atoms: _242  and  _244
REMARK  104  A    between atoms: _244  and  _245
REMARK  105  A    between atoms: _244  and  _247
REMARK  106  A    between atoms: _247  and  _248
REMARK  107  A    between atoms: _248  and  _249
REMARK  108  A    between atoms: _254  and  _256
REMARK  109  A    between atoms: _256  and  _257
REMARK  110  A    between atoms: _256  and  _259
REMARK  111  A    between atoms: _259  and  _260
REMARK  112  A    between atoms: _260  and  _261
REMARK  113  A    between atoms: _261  and  _262
REMARK  114  A    between atoms: _262  and  _263
REMARK  115  A    between atoms: _268  and  _269
REMARK  116  A    between atoms: _274  and  _276
REMARK  117  A    between atoms: _276  and  _277
REMARK  118  A    between atoms: _279  and  _281
REMARK  119  A    between atoms: _281  and  _282
REMARK  120  A    between atoms: _281  and  _284
REMARK  121  A    between atoms: _287  and  _289
REMARK  122  A    between atoms: _289  and  _290
REMARK  123  A    between atoms: _289  and  _292
REMARK  124  A    between atoms: _292  and  _293
REMARK  125  A    between atoms: _298  and  _299
REMARK                            x       y       z     vdW  Elec       q    Type
REMARK                         _______ _______ _______ _____ _____    ______ ____
ROOT
ATOM      1  O   HOH     1      50.558  64.113 -29.317  0.00  0.00    +0.000 OA
ENDROOT
TORSDOF 0
REMARK  Name = ../refined-set-2016/1v2u/1v2u_pocket.pdb
REMARK  125 active torsions:
REMARK  status: ('A' for Active; 'I' for Inactive)
REMARK    1  A    between atoms: _1  and  _5
REMARK    2  A    between atoms: _5  and  _6
REMARK    3  A    between atoms: _5  and  _8
REMARK    4  A    between atoms: _8  and  _9
REMARK    5  A    between atoms: _12  and  _14
REMARK    6  A    between atoms: _14  and  _15
REMARK    7  A    between atoms: _14  and  _17
REMARK    8  A    between atoms: _20  and  _22
REMARK    9  A    between atoms: _22  and  _23
REMARK   10  A    between atoms: _22  and  _25
REMARK   11  A    between atoms: _25  and  _26
REMARK   12  A    between atoms: _31  and  _33
REMARK   13  A    between atoms: _33  and  _34
REMARK   14  A    between atoms: _33  and  _36
REMARK   15  A    between atoms: _36  and  _37
REMARK   16  A    between atoms: _40  and  _42
REMARK   17  A    between atoms: _42  and  _43
REMARK   18  A    between atoms: _42  and  _45
REMARK   19  A    between atoms: _45  and  _46
REMARK   20  A    between atoms: _49  and  _51
REMARK   21  A    between atoms: _51  and  _52
REMARK   22  A    between atoms: _51  and  _54
REMARK   23  A    between atoms: _54  and  _55
REMARK   24  A    between atoms: _58  and  _60
REMARK   25  A    between atoms: _60  and  _61
REMARK   26  A    between atoms: _60  and  _63
REMARK   27  A    between atoms: _63  and  _64
REMARK   28  A    between atoms: _69  and  _71
REMARK   29  A    between atoms: _71  and  _72
REMARK   30  A    between atoms: _71  and  _74
REMARK   31  A    between atoms: _74  and  _75
REMARK   32  A    between atoms: _80  and  _81
REMARK   33  A    between atoms: _83  and  _85
REMARK   34  A    between atoms: _85  and  _86
REMARK   35  A    between atoms: _89  and  _91
REMARK   36  A    between atoms: _91  and  _92
REMARK   37  A    between atoms: _91  and  _94
REMARK   38  A    between atoms: _94  and  _95
REMARK   39  A    between atoms: _95  and  _96
REMARK   40  A    between atoms: _96  and  _97
REMARK   41  A    between atoms: _97  and  _98
REMARK   42  A    between atoms: _102  and  _104
REMARK   43  A    between atoms: _104  and  _105
REMARK   44  A    between atoms: _104  and  _107
REMARK   45  A    between atoms: _107  and  _108
REMARK   46  A    between atoms: _111  and  _113
REMARK   47  A    between atoms: _113  and  _114
REMARK   48  A    between atoms: _113  and  _116
REMARK   49  A    between atoms: _116  and  _117
REMARK   50  A    between atoms: _119  and  _121
REMARK   51  A    between atoms: _121  and  _122
REMARK   52  A    between atoms: _121  and  _124
REMARK   53  A    between atoms: _124  and  _125
REMARK   54  A    between atoms: _125  and  _235
REMARK   55  A    between atoms: _126  and  _128
REMARK   56  A    between atoms: _128  and  _129
REMARK   57  A    between atoms: _128  and  _131
REMARK   58  A    between atoms: _131  and  _132
REMARK   59  A    between atoms: _132  and  _133
REMARK   60  A    between atoms: _138  and  _140
REMARK   61  A    between atoms: _140  and  _141
REMARK   62  A    between atoms: _143  and  _145
REMARK   63  A    between atoms: _145  and  _146
REMARK   64  A    between atoms: _145  and  _148
REMARK   65  A    between atoms: _148  and  _149
REMARK   66  A    between atoms: _152  and  _154
REMARK   67  A    between atoms: _154  and  _155
REMARK   68  A    between atoms: _154  and  _157
REMARK   69  A    between atoms: _157  and  _158
REMARK   70  A    between atoms: _160  and  _162
REMARK   71  A    between atoms: _162  and  _163
REMARK   72  A    between atoms: _165  and  _167
REMARK   73  A    between atoms: _167  and  _168
REMARK   74  A    between atoms: _170  and  _172
REMARK   75  A    between atoms: _172  and  _173
REMARK   76  A    between atoms: _172  and  _175
REMARK   77  A    between atoms: _175  and  _176
REMARK   78  A    between atoms: _179  and  _181
REMARK   79  A    between atoms: _181  and  _182
REMARK   80  A    between atoms: _181  and  _184
REMARK   81  A    between atoms: _187  and  _189
REMARK   82  A    between atoms: _189  and  _190
REMARK   83  A    between atoms: _189  and  _192
REMARK   84  A    between atoms: _192  and  _193
REMARK   85  A    between atoms: _195  and  _197
REMARK   86  A    between atoms: _197  and  _198
REMARK   87  A    between atoms: _197  and  _200
REMARK   88  A    between atoms: _200  and  _201
REMARK   89  A    between atoms: _211  and  _213
REMARK   90  A    between atoms: _213  and  _214
REMARK   91  A    between atoms: _216  and  _218
REMARK   92  A    between atoms: _218  and  _219
REMARK   93  A    between atoms: _218  and  _221
REMARK   94  A    between atoms: _221  and  _222
REMARK   95  A    between atoms: _224  and  _226
REMARK   96  A    between atoms: _226  and  _227
REMARK   97  A    between atoms: _229  and  _231
REMARK   98  A    between atoms: _231  and  _232
REMARK   99  A    between atoms: _231  and  _234
REMARK  100  A    between atoms: _234  and  _235
REMARK  101  A    between atoms: _236  and  _238
REMARK  102  A    between atoms: _238  and  _239
REMARK  103  A    between atoms: _242  and  _244
REMARK  104  A    between atoms: _244  and  _245
REMARK  105  A    between atoms: _244  and  _247
REMARK  106  A    between atoms: _247  and  _248
REMARK  107  A    between atoms: _248  and  _249
REMARK  108  A    between atoms: _254  and  _256
REMARK  109  A    between atoms: _256  and  _257
REMARK  110  A    between atoms: _256  and  _259
REMARK  111  A    between atoms: _259  and  _260
REMARK  112  A    between atoms: _260  and  _261
REMARK  113  A    between atoms: _261  and  _262
REMARK  114  A    between atoms: _262  and  _263
REMARK  115  A    between atoms: _268  and  _269
REMARK  116  A    between atoms: _274  and  _276
REMARK  117  A    between atoms: _276  and  _277
REMARK  118  A    between atoms: _279  and  _281
REMARK  119  A    between atoms: _281  and  _282
REMARK  120  A    between atoms: _281  and  _284
REMARK  121  A    between atoms: _287  and  _289
REMARK  122  A    between atoms: _289  and  _290
REMARK  123  A    between atoms: _289  and  _292
REMARK  124  A    between atoms: _292  and  _293
REMARK  125  A    between atoms: _298  and  _299
REMARK                            x       y       z     vdW  Elec       q    Type
REMARK                         _______ _______ _______ _____ _____    ______ ____
ROOT
ATOM      1  O   HOH     1      55.875  66.294 -22.587  0.00  0.00    +0.000 OA
ENDROOT
TORSDOF 0
REMARK  Name = ../refined-set-2016/1v2u/1v2u_pocket.pdb
REMARK  125 active torsions:
REMARK  status: ('A' for Active; 'I' for Inactive)
REMARK    1  A    between atoms: _1  and  _5
REMARK    2  A    between atoms: _5  and  _6
REMARK    3  A    between atoms: _5  and  _8
REMARK    4  A    between atoms: _8  and  _9
REMARK    5  A    between atoms: _12  and  _14
REMARK    6  A    between atoms: _14  and  _15
REMARK    7  A    between atoms: _14  and  _17
REMARK    8  A    between atoms: _20  and  _22
REMARK    9  A    between atoms: _22  and  _23
REMARK   10  A    between atoms: _22  and  _25
REMARK   11  A    between atoms: _25  and  _26
REMARK   12  A    between atoms: _31  and  _33
REMARK   13  A    between atoms: _33  and  _34
REMARK   14  A    between atoms: _33  and  _36
REMARK   15  A    between atoms: _36  and  _37
REMARK   16  A    between atoms: _40  and  _42
REMARK   17  A    between atoms: _42  and  _43
REMARK   18  A    between atoms: _42  and  _45
REMARK   19  A    between atoms: _45  and  _46
REMARK   20  A    between atoms: _49  and  _51
REMARK   21  A    between atoms: _51  and  _52
REMARK   22  A    between atoms: _51  and  _54
REMARK   23  A    between atoms: _54  and  _55
REMARK   24  A    between atoms: _58  and  _60
REMARK   25  A    between atoms: _60  and  _61
REMARK   26  A    between atoms: _60  and  _63
REMARK   27  A    between atoms: _63  and  _64
REMARK   28  A    between atoms: _69  and  _71
REMARK   29  A    between atoms: _71  and  _72
REMARK   30  A    between atoms: _71  and  _74
REMARK   31  A    between atoms: _74  and  _75
REMARK   32  A    between atoms: _80  and  _81
REMARK   33  A    between atoms: _83  and  _85
REMARK   34  A    between atoms: _85  and  _86
REMARK   35  A    between atoms: _89  and  _91
REMARK   36  A    between atoms: _91  and  _92
REMARK   37  A    between atoms: _91  and  _94
REMARK   38  A    between atoms: _94  and  _95
REMARK   39  A    between atoms: _95  and  _96
REMARK   40  A    between atoms: _96  and  _97
REMARK   41  A    between atoms: _97  and  _98
REMARK   42  A    between atoms: _102  and  _104
REMARK   43  A    between atoms: _104  and  _105
REMARK   44  A    between atoms: _104  and  _107
REMARK   45  A    between atoms: _107  and  _108
REMARK   46  A    between atoms: _111  and  _113
REMARK   47  A    between atoms: _113  and  _114
REMARK   48  A    between atoms: _113  and  _116
REMARK   49  A    between atoms: _116  and  _117
REMARK   50  A    between atoms: _119  and  _121
REMARK   51  A    between atoms: _121  and  _122
REMARK   52  A    between atoms: _121  and  _124
REMARK   53  A    between atoms: _124  and  _125
REMARK   54  A    between atoms: _125  and  _235
REMARK   55  A    between atoms: _126  and  _128
REMARK   56  A    between atoms: _128  and  _129
REMARK   57  A    between atoms: _128  and  _131
REMARK   58  A    between atoms: _131  and  _132
REMARK   59  A    between atoms: _132  and  _133
REMARK   60  A    between atoms: _138  and  _140
REMARK   61  A    between atoms: _140  and  _141
REMARK   62  A    between atoms: _143  and  _145
REMARK   63  A    between atoms: _145  and  _146
REMARK   64  A    between atoms: _145  and  _148
REMARK   65  A    between atoms: _148  and  _149
REMARK   66  A    between atoms: _152  and  _154
REMARK   67  A    between atoms: _154  and  _155
REMARK   68  A    between atoms: _154  and  _157
REMARK   69  A    between atoms: _157  and  _158
REMARK   70  A    between atoms: _160  and  _162
REMARK   71  A    between atoms: _162  and  _163
REMARK   72  A    between atoms: _165  and  _167
REMARK   73  A    between atoms: _167  and  _168
REMARK   74  A    between atoms: _170  and  _172
REMARK   75  A    between atoms: _172  and  _173
REMARK   76  A    between atoms: _172  and  _175
REMARK   77  A    between atoms: _175  and  _176
REMARK   78  A    between atoms: _179  and  _181
REMARK   79  A    between atoms: _181  and  _182
REMARK   80  A    between atoms: _181  and  _184
REMARK   81  A    between atoms: _187  and  _189
REMARK   82  A    between atoms: _189  and  _190
REMARK   83  A    between atoms: _189  and  _192
REMARK   84  A    between atoms: _192  and  _193
REMARK   85  A    between atoms: _195  and  _197
REMARK   86  A    between atoms: _197  and  _198
REMARK   87  A    between atoms: _197  and  _200
REMARK   88  A    between atoms: _200  and  _201
REMARK   89  A    between atoms: _211  and  _213
REMARK   90  A    between atoms: _213  and  _214
REMARK   91  A    between atoms: _216  and  _218
REMARK   92  A    between atoms: _218  and  _219
REMARK   93  A    between atoms: _218  and  _221
REMARK   94  A    between atoms: _221  and  _222
REMARK   95  A    between atoms: _224  and  _226
REMARK   96  A    between atoms: _226  and  _227
REMARK   97  A    between atoms: _229  and  _231
REMARK   98  A    between atoms: _231  and  _232
REMARK   99  A    between atoms: _231  and  _234
REMARK  100  A    between atoms: _234  and  _235
REMARK  101  A    between atoms: _236  and  _238
REMARK  102  A    between atoms: _238  and  _239
REMARK  103  A    between atoms: _242  and  _244
REMARK  104  A    between atoms: _244  and  _245
REMARK  105  A    between atoms: _244  and  _247
REMARK  106  A    between atoms: _247  and  _248
REMARK  107  A    between atoms: _248  and  _249
REMARK  108  A    between atoms: _254  and  _256
REMARK  109  A    between atoms: _256  and  _257
REMARK  110  A    between atoms: _256  and  _259
REMARK  111  A    between atoms: _259  and  _260
REMARK  112  A    between atoms: _260  and  _261
REMARK  113  A    between atoms: _261  and  _262
REMARK  114  A    between atoms: _262  and  _263
REMARK  115  A    between atoms: _268  and  _269
REMARK  116  A    between atoms: _274  and  _276
REMARK  117  A    between atoms: _276  and  _277
REMARK  118  A    between atoms: _279  and  _281
REMARK  119  A    between atoms: _281  and  _282
REMARK  120  A    between atoms: _281  and  _284
REMARK  121  A    between atoms: _287  and  _289
REMARK  122  A    between atoms: _289  and  _290
REMARK  123  A    between atoms: _289  and  _292
REMARK  124  A    between atoms: _292  and  _293
REMARK  125  A    between atoms: _298  and  _299
REMARK                            x       y       z     vdW  Elec       q    Type
REMARK                         _______ _______ _______ _____ _____    ______ ____
ROOT
ATOM      1  O   HOH     1      55.472  60.336 -23.852  0.00  0.00    +0.000 OA
ENDROOT
TORSDOF 0
REMARK  Name = ../refined-set-2016/1v2u/1v2u_pocket.pdb
REMARK  125 active torsions:
REMARK  status: ('A' for Active; 'I' for Inactive)
REMARK    1  A    between atoms: _1  and  _5
REMARK    2  A    between atoms: _5  and  _6
REMARK    3  A    between atoms: _5  and  _8
REMARK    4  A    between atoms: _8  and  _9
REMARK    5  A    between atoms: _12  and  _14
REMARK    6  A    between atoms: _14  and  _15
REMARK    7  A    between atoms: _14  and  _17
REMARK    8  A    between atoms: _20  and  _22
REMARK    9  A    between atoms: _22  and  _23
REMARK   10  A    between atoms: _22  and  _25
REMARK   11  A    between atoms: _25  and  _26
REMARK   12  A    between atoms: _31  and  _33
REMARK   13  A    between atoms: _33  and  _34
REMARK   14  A    between atoms: _33  and  _36
REMARK   15  A    between atoms: _36  and  _37
REMARK   16  A    between atoms: _40  and  _42
REMARK   17  A    between atoms: _42  and  _43
REMARK   18  A    between atoms: _42  and  _45
REMARK   19  A    between atoms: _45  and  _46
REMARK   20  A    between atoms: _49  and  _51
REMARK   21  A    between atoms: _51  and  _52
REMARK   22  A    between atoms: _51  and  _54
REMARK   23  A    between atoms: _54  and  _55
REMARK   24  A    between atoms: _58  and  _60
REMARK   25  A    between atoms: _60  and  _61
REMARK   26  A    between atoms: _60  and  _63
REMARK   27  A    between atoms: _63  and  _64
REMARK   28  A    between atoms: _69  and  _71
REMARK   29  A    between atoms: _71  and  _72
REMARK   30  A    between atoms: _71  and  _74
REMARK   31  A    between atoms: _74  and  _75
REMARK   32  A    between atoms: _80  and  _81
REMARK   33  A    between atoms: _83  and  _85
REMARK   34  A    between atoms: _85  and  _86
REMARK   35  A    between atoms: _89  and  _91
REMARK   36  A    between atoms: _91  and  _92
REMARK   37  A    between atoms: _91  and  _94
REMARK   38  A    between atoms: _94  and  _95
REMARK   39  A    between atoms: _95  and  _96
REMARK   40  A    between atoms: _96  and  _97
REMARK   41  A    between atoms: _97  and  _98
REMARK   42  A    between atoms: _102  and  _104
REMARK   43  A    between atoms: _104  and  _105
REMARK   44  A    between atoms: _104  and  _107
REMARK   45  A    between atoms: _107  and  _108
REMARK   46  A    between atoms: _111  and  _113
REMARK   47  A    between atoms: _113  and  _114
REMARK   48  A    between atoms: _113  and  _116
REMARK   49  A    between atoms: _116  and  _117
REMARK   50  A    between atoms: _119  and  _121
REMARK   51  A    between atoms: _121  and  _122
REMARK   52  A    between atoms: _121  and  _124
REMARK   53  A    between atoms: _124  and  _125
REMARK   54  A    between atoms: _125  and  _235
REMARK   55  A    between atoms: _126  and  _128
REMARK   56  A    between atoms: _128  and  _129
REMARK   57  A    between atoms: _128  and  _131
REMARK   58  A    between atoms: _131  and  _132
REMARK   59  A    between atoms: _132  and  _133
REMARK   60  A    between atoms: _138  and  _140
REMARK   61  A    between atoms: _140  and  _141
REMARK   62  A    between atoms: _143  and  _145
REMARK   63  A    between atoms: _145  and  _146
REMARK   64  A    between atoms: _145  and  _148
REMARK   65  A    between atoms: _148  and  _149
REMARK   66  A    between atoms: _152  and  _154
REMARK   67  A    between atoms: _154  and  _155
REMARK   68  A    between atoms: _154  and  _157
REMARK   69  A    between atoms: _157  and  _158
REMARK   70  A    between atoms: _160  and  _162
REMARK   71  A    between atoms: _162  and  _163
REMARK   72  A    between atoms: _165  and  _167
REMARK   73  A    between atoms: _167  and  _168
REMARK   74  A    between atoms: _170  and  _172
REMARK   75  A    between atoms: _172  and  _173
REMARK   76  A    between atoms: _172  and  _175
REMARK   77  A    between atoms: _175  and  _176
REMARK   78  A    between atoms: _179  and  _181
REMARK   79  A    between atoms: _181  and  _182
REMARK   80  A    between atoms: _181  and  _184
REMARK   81  A    between atoms: _187  and  _189
REMARK   82  A    between atoms: _189  and  _190
REMARK   83  A    between atoms: _189  and  _192
REMARK   84  A    between atoms: _192  and  _193
REMARK   85  A    between atoms: _195  and  _197
REMARK   86  A    between atoms: _197  and  _198
REMARK   87  A    between atoms: _197  and  _200
REMARK   88  A    between atoms: _200  and  _201
REMARK   89  A    between atoms: _211  and  _213
REMARK   90  A    between atoms: _213  and  _214
REMARK   91  A    between atoms: _216  and  _218
REMARK   92  A    between atoms: _218  and  _219
REMARK   93  A    between atoms: _218  and  _221
REMARK   94  A    between atoms: _221  and  _222
REMARK   95  A    between atoms: _224  and  _226
REMARK   96  A    between atoms: _226  and  _227
REMARK   97  A    between atoms: _229  and  _231
REMARK   98  A    between atoms: _231  and  _232
REMARK   99  A    between atoms: _231  and  _234
REMARK  100  A    between atoms: _234  and  _235
REMARK  101  A    between atoms: _236  and  _238
REMARK  102  A    between atoms: _238  and  _239
REMARK  103  A    between atoms: _242  and  _244
REMARK  104  A    between atoms: _244  and  _245
REMARK  105  A    between atoms: _244  and  _247
REMARK  106  A    between atoms: _247  and  _248
REMARK  107  A    between atoms: _248  and  _249
REMARK  108  A    between atoms: _254  and  _256
REMARK  109  A    between atoms: _256  and  _257
REMARK  110  A    between atoms: _256  and  _259
REMARK  111  A    between atoms: _259  and  _260
REMARK  112  A    between atoms: _260  and  _261
REMARK  113  A    between atoms: _261  and  _262
REMARK  114  A    between atoms: _262  and  _263
REMARK  115  A    between atoms: _268  and  _269
REMARK  116  A    between atoms: _274  and  _276
REMARK  117  A    between atoms: _276  and  _277
REMARK  118  A    between atoms: _279  and  _281
REMARK  119  A    between atoms: _281  and  _282
REMARK  120  A    between atoms: _281  and  _284
REMARK  121  A    between atoms: _287  and  _289
REMARK  122  A    between atoms: _289  and  _290
REMARK  123  A    between atoms: _289  and  _292
REMARK  124  A    between atoms: _292  and  _293
REMARK  125  A    between atoms: _298  and  _299
REMARK                            x       y       z     vdW  Elec       q    Type
REMARK                         _______ _______ _______ _____ _____    ______ ____
ROOT
ATOM      1  O   HOH     1      59.932  70.046 -24.021  0.00  0.00    +0.000 OA
ENDROOT
TORSDOF 0
REMARK  Name = ../refined-set-2016/1v2u/1v2u_pocket.pdb
REMARK  125 active torsions:
REMARK  status: ('A' for Active; 'I' for Inactive)
REMARK    1  A    between atoms: _1  and  _5
REMARK    2  A    between atoms: _5  and  _6
REMARK    3  A    between atoms: _5  and  _8
REMARK    4  A    between atoms: _8  and  _9
REMARK    5  A    between atoms: _12  and  _14
REMARK    6  A    between atoms: _14  and  _15
REMARK    7  A    between atoms: _14  and  _17
REMARK    8  A    between atoms: _20  and  _22
REMARK    9  A    between atoms: _22  and  _23
REMARK   10  A    between atoms: _22  and  _25
REMARK   11  A    between atoms: _25  and  _26
REMARK   12  A    between atoms: _31  and  _33
REMARK   13  A    between atoms: _33  and  _34
REMARK   14  A    between atoms: _33  and  _36
REMARK   15  A    between atoms: _36  and  _37
REMARK   16  A    between atoms: _40  and  _42
REMARK   17  A    between atoms: _42  and  _43
REMARK   18  A    between atoms: _42  and  _45
REMARK   19  A    between atoms: _45  and  _46
REMARK   20  A    between atoms: _49  and  _51
REMARK   21  A    between atoms: _51  and  _52
REMARK   22  A    between atoms: _51  and  _54
REMARK   23  A    between atoms: _54  and  _55
REMARK   24  A    between atoms: _58  and  _60
REMARK   25  A    between atoms: _60  and  _61
REMARK   26  A    between atoms: _60  and  _63
REMARK   27  A    between atoms: _63  and  _64
REMARK   28  A    between atoms: _69  and  _71
REMARK   29  A    between atoms: _71  and  _72
REMARK   30  A    between atoms: _71  and  _74
REMARK   31  A    between atoms: _74  and  _75
REMARK   32  A    between atoms: _80  and  _81
REMARK   33  A    between atoms: _83  and  _85
REMARK   34  A    between atoms: _85  and  _86
REMARK   35  A    between atoms: _89  and  _91
REMARK   36  A    between atoms: _91  and  _92
REMARK   37  A    between atoms: _91  and  _94
REMARK   38  A    between atoms: _94  and  _95
REMARK   39  A    between atoms: _95  and  _96
REMARK   40  A    between atoms: _96  and  _97
REMARK   41  A    between atoms: _97  and  _98
REMARK   42  A    between atoms: _102  and  _104
REMARK   43  A    between atoms: _104  and  _105
REMARK   44  A    between atoms: _104  and  _107
REMARK   45  A    between atoms: _107  and  _108
REMARK   46  A    between atoms: _111  and  _113
REMARK   47  A    between atoms: _113  and  _114
REMARK   48  A    between atoms: _113  and  _116
REMARK   49  A    between atoms: _116  and  _117
REMARK   50  A    between atoms: _119  and  _121
REMARK   51  A    between atoms: _121  and  _122
REMARK   52  A    between atoms: _121  and  _124
REMARK   53  A    between atoms: _124  and  _125
REMARK   54  A    between atoms: _125  and  _235
REMARK   55  A    between atoms: _126  and  _128
REMARK   56  A    between atoms: _128  and  _129
REMARK   57  A    between atoms: _128  and  _131
REMARK   58  A    between atoms: _131  and  _132
REMARK   59  A    between atoms: _132  and  _133
REMARK   60  A    between atoms: _138  and  _140
REMARK   61  A    between atoms: _140  and  _141
REMARK   62  A    between atoms: _143  and  _145
REMARK   63  A    between atoms: _145  and  _146
REMARK   64  A    between atoms: _145  and  _148
REMARK   65  A    between atoms: _148  and  _149
REMARK   66  A    between atoms: _152  and  _154
REMARK   67  A    between atoms: _154  and  _155
REMARK   68  A    between atoms: _154  and  _157
REMARK   69  A    between atoms: _157  and  _158
REMARK   70  A    between atoms: _160  and  _162
REMARK   71  A    between atoms: _162  and  _163
REMARK   72  A    between atoms: _165  and  _167
REMARK   73  A    between atoms: _167  and  _168
REMARK   74  A    between atoms: _170  and  _172
REMARK   75  A    between atoms: _172  and  _173
REMARK   76  A    between atoms: _172  and  _175
REMARK   77  A    between atoms: _175  and  _176
REMARK   78  A    between atoms: _179  and  _181
REMARK   79  A    between atoms: _181  and  _182
REMARK   80  A    between atoms: _181  and  _184
REMARK   81  A    between atoms: _187  and  _189
REMARK   82  A    between atoms: _189  and  _190
REMARK   83  A    between atoms: _189  and  _192
REMARK   84  A    between atoms: _192  and  _193
REMARK   85  A    between atoms: _195  and  _197
REMARK   86  A    between atoms: _197  and  _198
REMARK   87  A    between atoms: _197  and  _200
REMARK   88  A    between atoms: _200  and  _201
REMARK   89  A    between atoms: _211  and  _213
REMARK   90  A    between atoms: _213  and  _214
REMARK   91  A    between atoms: _216  and  _218
REMARK   92  A    between atoms: _218  and  _219
REMARK   93  A    between atoms: _218  and  _221
REMARK   94  A    between atoms: _221  and  _222
REMARK   95  A    between atoms: _224  and  _226
REMARK   96  A    between atoms: _226  and  _227
REMARK   97  A    between atoms: _229  and  _231
REMARK   98  A    between atoms: _231  and  _232
REMARK   99  A    between atoms: _231  and  _234
REMARK  100  A    between atoms: _234  and  _235
REMARK  101  A    between atoms: _236  and  _238
REMARK  102  A    between atoms: _238  and  _239
REMARK  103  A    between atoms: _242  and  _244
REMARK  104  A    between atoms: _244  and  _245
REMARK  105  A    between atoms: _244  and  _247
REMARK  106  A    between atoms: _247  and  _248
REMARK  107  A    between atoms: _248  and  _249
REMARK  108  A    between atoms: _254  and  _256
REMARK  109  A    between atoms: _256  and  _257
REMARK  110  A    between atoms: _256  and  _259
REMARK  111  A    between atoms: _259  and  _260
REMARK  112  A    between atoms: _260  and  _261
REMARK  113  A    between atoms: _261  and  _262
REMARK  114  A    between atoms: _262  and  _263
REMARK  115  A    between atoms: _268  and  _269
REMARK  116  A    between atoms: _274  and  _276
REMARK  117  A    between atoms: _276  and  _277
REMARK  118  A    between atoms: _279  and  _281
REMARK  119  A    between atoms: _281  and  _282
REMARK  120  A    between atoms: _281  and  _284
REMARK  121  A    between atoms: _287  and  _289
REMARK  122  A    between atoms: _289  and  _290
REMARK  123  A    between atoms: _289  and  _292
REMARK  124  A    between atoms: _292  and  _293
REMARK  125  A    between atoms: _298  and  _299
REMARK                            x       y       z     vdW  Elec       q    Type
REMARK                         _______ _______ _______ _____ _____    ______ ____
ROOT
ATOM      1  O   HOH     1      50.785  71.075 -28.362  0.00  0.00    +0.000 OA
ENDROOT
TORSDOF 0
REMARK  Name = ../refined-set-2016/1v2u/1v2u_pocket.pdb
REMARK  125 active torsions:
REMARK  status: ('A' for Active; 'I' for Inactive)
REMARK    1  A    between atoms: _1  and  _5
REMARK    2  A    between atoms: _5  and  _6
REMARK    3  A    between atoms: _5  and  _8
REMARK    4  A    between atoms: _8  and  _9
REMARK    5  A    between atoms: _12  and  _14
REMARK    6  A    between atoms: _14  and  _15
REMARK    7  A    between atoms: _14  and  _17
REMARK    8  A    between atoms: _20  and  _22
REMARK    9  A    between atoms: _22  and  _23
REMARK   10  A    between atoms: _22  and  _25
REMARK   11  A    between atoms: _25  and  _26
REMARK   12  A    between atoms: _31  and  _33
REMARK   13  A    between atoms: _33  and  _34
REMARK   14  A    between atoms: _33  and  _36
REMARK   15  A    between atoms: _36  and  _37
REMARK   16  A    between atoms: _40  and  _42
REMARK   17  A    between atoms: _42  and  _43
REMARK   18  A    between atoms: _42  and  _45
REMARK   19  A    between atoms: _45  and  _46
REMARK   20  A    between atoms: _49  and  _51
REMARK   21  A    between atoms: _51  and  _52
REMARK   22  A    between atoms: _51  and  _54
REMARK   23  A    between atoms: _54  and  _55
REMARK   24  A    between atoms: _58  and  _60
REMARK   25  A    between atoms: _60  and  _61
REMARK   26  A    between atoms: _60  and  _63
REMARK   27  A    between atoms: _63  and  _64
REMARK   28  A    between atoms: _69  and  _71
REMARK   29  A    between atoms: _71  and  _72
REMARK   30  A    between atoms: _71  and  _74
REMARK   31  A    between atoms: _74  and  _75
REMARK   32  A    between atoms: _80  and  _81
REMARK   33  A    between atoms: _83  and  _85
REMARK   34  A    between atoms: _85  and  _86
REMARK   35  A    between atoms: _89  and  _91
REMARK   36  A    between atoms: _91  and  _92
REMARK   37  A    between atoms: _91  and  _94
REMARK   38  A    between atoms: _94  and  _95
REMARK   39  A    between atoms: _95  and  _96
REMARK   40  A    between atoms: _96  and  _97
REMARK   41  A    between atoms: _97  and  _98
REMARK   42  A    between atoms: _102  and  _104
REMARK   43  A    between atoms: _104  and  _105
REMARK   44  A    between atoms: _104  and  _107
REMARK   45  A    between atoms: _107  and  _108
REMARK   46  A    between atoms: _111  and  _113
REMARK   47  A    between atoms: _113  and  _114
REMARK   48  A    between atoms: _113  and  _116
REMARK   49  A    between atoms: _116  and  _117
REMARK   50  A    between atoms: _119  and  _121
REMARK   51  A    between atoms: _121  and  _122
REMARK   52  A    between atoms: _121  and  _124
REMARK   53  A    between atoms: _124  and  _125
REMARK   54  A    between atoms: _125  and  _235
REMARK   55  A    between atoms: _126  and  _128
REMARK   56  A    between atoms: _128  and  _129
REMARK   57  A    between atoms: _128  and  _131
REMARK   58  A    between atoms: _131  and  _132
REMARK   59  A    between atoms: _132  and  _133
REMARK   60  A    between atoms: _138  and  _140
REMARK   61  A    between atoms: _140  and  _141
REMARK   62  A    between atoms: _143  and  _145
REMARK   63  A    between atoms: _145  and  _146
REMARK   64  A    between atoms: _145  and  _148
REMARK   65  A    between atoms: _148  and  _149
REMARK   66  A    between atoms: _152  and  _154
REMARK   67  A    between atoms: _154  and  _155
REMARK   68  A    between atoms: _154  and  _157
REMARK   69  A    between atoms: _157  and  _158
REMARK   70  A    between atoms: _160  and  _162
REMARK   71  A    between atoms: _162  and  _163
REMARK   72  A    between atoms: _165  and  _167
REMARK   73  A    between atoms: _167  and  _168
REMARK   74  A    between atoms: _170  and  _172
REMARK   75  A    between atoms: _172  and  _173
REMARK   76  A    between atoms: _172  and  _175
REMARK   77  A    between atoms: _175  and  _176
REMARK   78  A    between atoms: _179  and  _181
REMARK   79  A    between atoms: _181  and  _182
REMARK   80  A    between atoms: _181  and  _184
REMARK   81  A    between atoms: _187  and  _189
REMARK   82  A    between atoms: _189  and  _190
REMARK   83  A    between atoms: _189  and  _192
REMARK   84  A    between atoms: _192  and  _193
REMARK   85  A    between atoms: _195  and  _197
REMARK   86  A    between atoms: _197  and  _198
REMARK   87  A    between atoms: _197  and  _200
REMARK   88  A    between atoms: _200  and  _201
REMARK   89  A    between atoms: _211  and  _213
REMARK   90  A    between atoms: _213  and  _214
REMARK   91  A    between atoms: _216  and  _218
REMARK   92  A    between atoms: _218  and  _219
REMARK   93  A    between atoms: _218  and  _221
REMARK   94  A    between atoms: _221  and  _222
REMARK   95  A    between atoms: _224  and  _226
REMARK   96  A    between atoms: _226  and  _227
REMARK   97  A    between atoms: _229  and  _231
REMARK   98  A    between atoms: _231  and  _232
REMARK   99  A    between atoms: _231  and  _234
REMARK  100  A    between atoms: _234  and  _235
REMARK  101  A    between atoms: _236  and  _238
REMARK  102  A    between atoms: _238  and  _239
REMARK  103  A    between atoms: _242  and  _244
REMARK  104  A    between atoms: _244  and  _245
REMARK  105  A    between atoms: _244  and  _247
REMARK  106  A    between atoms: _247  and  _248
REMARK  107  A    between atoms: _248  and  _249
REMARK  108  A    between atoms: _254  and  _256
REMARK  109  A    between atoms: _256  and  _257
REMARK  110  A    between atoms: _256  and  _259
REMARK  111  A    between atoms: _259  and  _260
REMARK  112  A    between atoms: _260  and  _261
REMARK  113  A    between atoms: _261  and  _262
REMARK  114  A    between atoms: _262  and  _263
REMARK  115  A    between atoms: _268  and  _269
REMARK  116  A    between atoms: _274  and  _276
REMARK  117  A    between atoms: _276  and  _277
REMARK  118  A    between atoms: _279  and  _281
REMARK  119  A    between atoms: _281  and  _282
REMARK  120  A    between atoms: _281  and  _284
REMARK  121  A    between atoms: _287  and  _289
REMARK  122  A    between atoms: _289  and  _290
REMARK  123  A    between atoms: _289  and  _292
REMARK  124  A    between atoms: _292  and  _293
REMARK  125  A    between atoms: _298  and  _299
REMARK                            x       y       z     vdW  Elec       q    Type
REMARK                         _______ _______ _______ _____ _____    ______ ____
ROOT
ATOM      1  O   HOH     1      49.770  70.761 -31.017  0.00  0.00    +0.000 OA
ENDROOT
TORSDOF 0
REMARK  Name = ../refined-set-2016/1v2u/1v2u_pocket.pdb
REMARK  125 active torsions:
REMARK  status: ('A' for Active; 'I' for Inactive)
REMARK    1  A    between atoms: _1  and  _5
REMARK    2  A    between atoms: _5  and  _6
REMARK    3  A    between atoms: _5  and  _8
REMARK    4  A    between atoms: _8  and  _9
REMARK    5  A    between atoms: _12  and  _14
REMARK    6  A    between atoms: _14  and  _15
REMARK    7  A    between atoms: _14  and  _17
REMARK    8  A    between atoms: _20  and  _22
REMARK    9  A    between atoms: _22  and  _23
REMARK   10  A    between atoms: _22  and  _25
REMARK   11  A    between atoms: _25  and  _26
REMARK   12  A    between atoms: _31  and  _33
REMARK   13  A    between atoms: _33  and  _34
REMARK   14  A    between atoms: _33  and  _36
REMARK   15  A    between atoms: _36  and  _37
REMARK   16  A    between atoms: _40  and  _42
REMARK   17  A    between atoms: _42  and  _43
REMARK   18  A    between atoms: _42  and  _45
REMARK   19  A    between atoms: _45  and  _46
REMARK   20  A    between atoms: _49  and  _51
REMARK   21  A    between atoms: _51  and  _52
REMARK   22  A    between atoms: _51  and  _54
REMARK   23  A    between atoms: _54  and  _55
REMARK   24  A    between atoms: _58  and  _60
REMARK   25  A    between atoms: _60  and  _61
REMARK   26  A    between atoms: _60  and  _63
REMARK   27  A    between atoms: _63  and  _64
REMARK   28  A    between atoms: _69  and  _71
REMARK   29  A    between atoms: _71  and  _72
REMARK   30  A    between atoms: _71  and  _74
REMARK   31  A    between atoms: _74  and  _75
REMARK   32  A    between atoms: _80  and  _81
REMARK   33  A    between atoms: _83  and  _85
REMARK   34  A    between atoms: _85  and  _86
REMARK   35  A    between atoms: _89  and  _91
REMARK   36  A    between atoms: _91  and  _92
REMARK   37  A    between atoms: _91  and  _94
REMARK   38  A    between atoms: _94  and  _95
REMARK   39  A    between atoms: _95  and  _96
REMARK   40  A    between atoms: _96  and  _97
REMARK   41  A    between atoms: _97  and  _98
REMARK   42  A    between atoms: _102  and  _104
REMARK   43  A    between atoms: _104  and  _105
REMARK   44  A    between atoms: _104  and  _107
REMARK   45  A    between atoms: _107  and  _108
REMARK   46  A    between atoms: _111  and  _113
REMARK   47  A    between atoms: _113  and  _114
REMARK   48  A    between atoms: _113  and  _116
REMARK   49  A    between atoms: _116  and  _117
REMARK   50  A    between atoms: _119  and  _121
REMARK   51  A    between atoms: _121  and  _122
REMARK   52  A    between atoms: _121  and  _124
REMARK   53  A    between atoms: _124  and  _125
REMARK   54  A    between atoms: _125  and  _235
REMARK   55  A    between atoms: _126  and  _128
REMARK   56  A    between atoms: _128  and  _129
REMARK   57  A    between atoms: _128  and  _131
REMARK   58  A    between atoms: _131  and  _132
REMARK   59  A    between atoms: _132  and  _133
REMARK   60  A    between atoms: _138  and  _140
REMARK   61  A    between atoms: _140  and  _141
REMARK   62  A    between atoms: _143  and  _145
REMARK   63  A    between atoms: _145  and  _146
REMARK   64  A    between atoms: _145  and  _148
REMARK   65  A    between atoms: _148  and  _149
REMARK   66  A    between atoms: _152  and  _154
REMARK   67  A    between atoms: _154  and  _155
REMARK   68  A    between atoms: _154  and  _157
REMARK   69  A    between atoms: _157  and  _158
REMARK   70  A    between atoms: _160  and  _162
REMARK   71  A    between atoms: _162  and  _163
REMARK   72  A    between atoms: _165  and  _167
REMARK   73  A    between atoms: _167  and  _168
REMARK   74  A    between atoms: _170  and  _172
REMARK   75  A    between atoms: _172  and  _173
REMARK   76  A    between atoms: _172  and  _175
REMARK   77  A    between atoms: _175  and  _176
REMARK   78  A    between atoms: _179  and  _181
REMARK   79  A    between atoms: _181  and  _182
REMARK   80  A    between atoms: _181  and  _184
REMARK   81  A    between atoms: _187  and  _189
REMARK   82  A    between atoms: _189  and  _190
REMARK   83  A    between atoms: _189  and  _192
REMARK   84  A    between atoms: _192  and  _193
REMARK   85  A    between atoms: _195  and  _197
REMARK   86  A    between atoms: _197  and  _198
REMARK   87  A    between atoms: _197  and  _200
REMARK   88  A    between atoms: _200  and  _201
REMARK   89  A    between atoms: _211  and  _213
REMARK   90  A    between atoms: _213  and  _214
REMARK   91  A    between atoms: _216  and  _218
REMARK   92  A    between atoms: _218  and  _219
REMARK   93  A    between atoms: _218  and  _221
REMARK   94  A    between atoms: _221  and  _222
REMARK   95  A    between atoms: _224  and  _226
REMARK   96  A    between atoms: _226  and  _227
REMARK   97  A    between atoms: _229  and  _231
REMARK   98  A    between atoms: _231  and  _232
REMARK   99  A    between atoms: _231  and  _234
REMARK  100  A    between atoms: _234  and  _235
REMARK  101  A    between atoms: _236  and  _238
REMARK  102  A    between atoms: _238  and  _239
REMARK  103  A    between atoms: _242  and  _244
REMARK  104  A    between atoms: _244  and  _245
REMARK  105  A    between atoms: _244  and  _247
REMARK  106  A    between atoms: _247  and  _248
REMARK  107  A    between atoms: _248  and  _249
REMARK  108  A    between atoms: _254  and  _256
REMARK  109  A    between atoms: _256  and  _257
REMARK  110  A    between atoms: _256  and  _259
REMARK  111  A    between atoms: _259  and  _260
REMARK  112  A    between atoms: _260  and  _261
REMARK  113  A    between atoms: _261  and  _262
REMARK  114  A    between atoms: _262  and  _263
REMARK  115  A    between atoms: _268  and  _269
REMARK  116  A    between atoms: _274  and  _276
REMARK  117  A    between atoms: _276  and  _277
REMARK  118  A    between atoms: _279  and  _281
REMARK  119  A    between atoms: _281  and  _282
REMARK  120  A    between atoms: _281  and  _284
REMARK  121  A    between atoms: _287  and  _289
REMARK  122  A    between atoms: _289  and  _290
REMARK  123  A    between atoms: _289  and  _292
REMARK  124  A    between atoms: _292  and  _293
REMARK  125  A    between atoms: _298  and  _299
REMARK                            x       y       z     vdW  Elec       q    Type
REMARK                         _______ _______ _______ _____ _____    ______ ____
ROOT
ATOM      1  O   HOH     1      56.344  62.618 -22.564  0.00  0.00    +0.000 OA
ENDROOT
TORSDOF 0
REMARK  Name = ../refined-set-2016/1v2u/1v2u_pocket.pdb
REMARK  125 active torsions:
REMARK  status: ('A' for Active; 'I' for Inactive)
REMARK    1  A    between atoms: _1  and  _5
REMARK    2  A    between atoms: _5  and  _6
REMARK    3  A    between atoms: _5  and  _8
REMARK    4  A    between atoms: _8  and  _9
REMARK    5  A    between atoms: _12  and  _14
REMARK    6  A    between atoms: _14  and  _15
REMARK    7  A    between atoms: _14  and  _17
REMARK    8  A    between atoms: _20  and  _22
REMARK    9  A    between atoms: _22  and  _23
REMARK   10  A    between atoms: _22  and  _25
REMARK   11  A    between atoms: _25  and  _26
REMARK   12  A    between atoms: _31  and  _33
REMARK   13  A    between atoms: _33  and  _34
REMARK   14  A    between atoms: _33  and  _36
REMARK   15  A    between atoms: _36  and  _37
REMARK   16  A    between atoms: _40  and  _42
REMARK   17  A    between atoms: _42  and  _43
REMARK   18  A    between atoms: _42  and  _45
REMARK   19  A    between atoms: _45  and  _46
REMARK   20  A    between atoms: _49  and  _51
REMARK   21  A    between atoms: _51  and  _52
REMARK   22  A    between atoms: _51  and  _54
REMARK   23  A    between atoms: _54  and  _55
REMARK   24  A    between atoms: _58  and  _60
REMARK   25  A    between atoms: _60  and  _61
REMARK   26  A    between atoms: _60  and  _63
REMARK   27  A    between atoms: _63  and  _64
REMARK   28  A    between atoms: _69  and  _71
REMARK   29  A    between atoms: _71  and  _72
REMARK   30  A    between atoms: _71  and  _74
REMARK   31  A    between atoms: _74  and  _75
REMARK   32  A    between atoms: _80  and  _81
REMARK   33  A    between atoms: _83  and  _85
REMARK   34  A    between atoms: _85  and  _86
REMARK   35  A    between atoms: _89  and  _91
REMARK   36  A    between atoms: _91  and  _92
REMARK   37  A    between atoms: _91  and  _94
REMARK   38  A    between atoms: _94  and  _95
REMARK   39  A    between atoms: _95  and  _96
REMARK   40  A    between atoms: _96  and  _97
REMARK   41  A    between atoms: _97  and  _98
REMARK   42  A    between atoms: _102  and  _104
REMARK   43  A    between atoms: _104  and  _105
REMARK   44  A    between atoms: _104  and  _107
REMARK   45  A    between atoms: _107  and  _108
REMARK   46  A    between atoms: _111  and  _113
REMARK   47  A    between atoms: _113  and  _114
REMARK   48  A    between atoms: _113  and  _116
REMARK   49  A    between atoms: _116  and  _117
REMARK   50  A    between atoms: _119  and  _121
REMARK   51  A    between atoms: _121  and  _122
REMARK   52  A    between atoms: _121  and  _124
REMARK   53  A    between atoms: _124  and  _125
REMARK   54  A    between atoms: _125  and  _235
REMARK   55  A    between atoms: _126  and  _128
REMARK   56  A    between atoms: _128  and  _129
REMARK   57  A    between atoms: _128  and  _131
REMARK   58  A    between atoms: _131  and  _132
REMARK   59  A    between atoms: _132  and  _133
REMARK   60  A    between atoms: _138  and  _140
REMARK   61  A    between atoms: _140  and  _141
REMARK   62  A    between atoms: _143  and  _145
REMARK   63  A    between atoms: _145  and  _146
REMARK   64  A    between atoms: _145  and  _148
REMARK   65  A    between atoms: _148  and  _149
REMARK   66  A    between atoms: _152  and  _154
REMARK   67  A    between atoms: _154  and  _155
REMARK   68  A    between atoms: _154  and  _157
REMARK   69  A    between atoms: _157  and  _158
REMARK   70  A    between atoms: _160  and  _162
REMARK   71  A    between atoms: _162  and  _163
REMARK   72  A    between atoms: _165  and  _167
REMARK   73  A    between atoms: _167  and  _168
REMARK   74  A    between atoms: _170  and  _172
REMARK   75  A    between atoms: _172  and  _173
REMARK   76  A    between atoms: _172  and  _175
REMARK   77  A    between atoms: _175  and  _176
REMARK   78  A    between atoms: _179  and  _181
REMARK   79  A    between atoms: _181  and  _182
REMARK   80  A    between atoms: _181  and  _184
REMARK   81  A    between atoms: _187  and  _189
REMARK   82  A    between atoms: _189  and  _190
REMARK   83  A    between atoms: _189  and  _192
REMARK   84  A    between atoms: _192  and  _193
REMARK   85  A    between atoms: _195  and  _197
REMARK   86  A    between atoms: _197  and  _198
REMARK   87  A    between atoms: _197  and  _200
REMARK   88  A    between atoms: _200  and  _201
REMARK   89  A    between atoms: _211  and  _213
REMARK   90  A    between atoms: _213  and  _214
REMARK   91  A    between atoms: _216  and  _218
REMARK   92  A    between atoms: _218  and  _219
REMARK   93  A    between atoms: _218  and  _221
REMARK   94  A    between atoms: _221  and  _222
REMARK   95  A    between atoms: _224  and  _226
REMARK   96  A    between atoms: _226  and  _227
REMARK   97  A    between atoms: _229  and  _231
REMARK   98  A    between atoms: _231  and  _232
REMARK   99  A    between atoms: _231  and  _234
REMARK  100  A    between atoms: _234  and  _235
REMARK  101  A    between atoms: _236  and  _238
REMARK  102  A    between atoms: _238  and  _239
REMARK  103  A    between atoms: _242  and  _244
REMARK  104  A    between atoms: _244  and  _245
REMARK  105  A    between atoms: _244  and  _247
REMARK  106  A    between atoms: _247  and  _248
REMARK  107  A    between atoms: _248  and  _249
REMARK  108  A    between atoms: _254  and  _256
REMARK  109  A    between atoms: _256  and  _257
REMARK  110  A    between atoms: _256  and  _259
REMARK  111  A    between atoms: _259  and  _260
REMARK  112  A    between atoms: _260  and  _261
REMARK  113  A    between atoms: _261  and  _262
REMARK  114  A    between atoms: _262  and  _263
REMARK  115  A    between atoms: _268  and  _269
REMARK  116  A    between atoms: _274  and  _276
REMARK  117  A    between atoms: _276  and  _277
REMARK  118  A    between atoms: _279  and  _281
REMARK  119  A    between atoms: _281  and  _282
REMARK  120  A    between atoms: _281  and  _284
REMARK  121  A    between atoms: _287  and  _289
REMARK  122  A    between atoms: _289  and  _290
REMARK  123  A    between atoms: _289  and  _292
REMARK  124  A    between atoms: _292  and  _293
REMARK  125  A    between atoms: _298  and  _299
REMARK                            x       y       z     vdW  Elec       q    Type
REMARK                         _______ _______ _______ _____ _____    ______ ____
ROOT
ATOM      1  O   HOH     1      53.153  65.735 -23.791  0.00  0.00    +0.000 OA
ENDROOT
TORSDOF 0
REMARK  Name = ../refined-set-2016/1v2u/1v2u_pocket.pdb
REMARK  125 active torsions:
REMARK  status: ('A' for Active; 'I' for Inactive)
REMARK    1  A    between atoms: _1  and  _5
REMARK    2  A    between atoms: _5  and  _6
REMARK    3  A    between atoms: _5  and  _8
REMARK    4  A    between atoms: _8  and  _9
REMARK    5  A    between atoms: _12  and  _14
REMARK    6  A    between atoms: _14  and  _15
REMARK    7  A    between atoms: _14  and  _17
REMARK    8  A    between atoms: _20  and  _22
REMARK    9  A    between atoms: _22  and  _23
REMARK   10  A    between atoms: _22  and  _25
REMARK   11  A    between atoms: _25  and  _26
REMARK   12  A    between atoms: _31  and  _33
REMARK   13  A    between atoms: _33  and  _34
REMARK   14  A    between atoms: _33  and  _36
REMARK   15  A    between atoms: _36  and  _37
REMARK   16  A    between atoms: _40  and  _42
REMARK   17  A    between atoms: _42  and  _43
REMARK   18  A    between atoms: _42  and  _45
REMARK   19  A    between atoms: _45  and  _46
REMARK   20  A    between atoms: _49  and  _51
REMARK   21  A    between atoms: _51  and  _52
REMARK   22  A    between atoms: _51  and  _54
REMARK   23  A    between atoms: _54  and  _55
REMARK   24  A    between atoms: _58  and  _60
REMARK   25  A    between atoms: _60  and  _61
REMARK   26  A    between atoms: _60  and  _63
REMARK   27  A    between atoms: _63  and  _64
REMARK   28  A    between atoms: _69  and  _71
REMARK   29  A    between atoms: _71  and  _72
REMARK   30  A    between atoms: _71  and  _74
REMARK   31  A    between atoms: _74  and  _75
REMARK   32  A    between atoms: _80  and  _81
REMARK   33  A    between atoms: _83  and  _85
REMARK   34  A    between atoms: _85  and  _86
REMARK   35  A    between atoms: _89  and  _91
REMARK   36  A    between atoms: _91  and  _92
REMARK   37  A    between atoms: _91  and  _94
REMARK   38  A    between atoms: _94  and  _95
REMARK   39  A    between atoms: _95  and  _96
REMARK   40  A    between atoms: _96  and  _97
REMARK   41  A    between atoms: _97  and  _98
REMARK   42  A    between atoms: _102  and  _104
REMARK   43  A    between atoms: _104  and  _105
REMARK   44  A    between atoms: _104  and  _107
REMARK   45  A    between atoms: _107  and  _108
REMARK   46  A    between atoms: _111  and  _113
REMARK   47  A    between atoms: _113  and  _114
REMARK   48  A    between atoms: _113  and  _116
REMARK   49  A    between atoms: _116  and  _117
REMARK   50  A    between atoms: _119  and  _121
REMARK   51  A    between atoms: _121  and  _122
REMARK   52  A    between atoms: _121  and  _124
REMARK   53  A    between atoms: _124  and  _125
REMARK   54  A    between atoms: _125  and  _235
REMARK   55  A    between atoms: _126  and  _128
REMARK   56  A    between atoms: _128  and  _129
REMARK   57  A    between atoms: _128  and  _131
REMARK   58  A    between atoms: _131  and  _132
REMARK   59  A    between atoms: _132  and  _133
REMARK   60  A    between atoms: _138  and  _140
REMARK   61  A    between atoms: _140  and  _141
REMARK   62  A    between atoms: _143  and  _145
REMARK   63  A    between atoms: _145  and  _146
REMARK   64  A    between atoms: _145  and  _148
REMARK   65  A    between atoms: _148  and  _149
REMARK   66  A    between atoms: _152  and  _154
REMARK   67  A    between atoms: _154  and  _155
REMARK   68  A    between atoms: _154  and  _157
REMARK   69  A    between atoms: _157  and  _158
REMARK   70  A    between atoms: _160  and  _162
REMARK   71  A    between atoms: _162  and  _163
REMARK   72  A    between atoms: _165  and  _167
REMARK   73  A    between atoms: _167  and  _168
REMARK   74  A    between atoms: _170  and  _172
REMARK   75  A    between atoms: _172  and  _173
REMARK   76  A    between atoms: _172  and  _175
REMARK   77  A    between atoms: _175  and  _176
REMARK   78  A    between atoms: _179  and  _181
REMARK   79  A    between atoms: _181  and  _182
REMARK   80  A    between atoms: _181  and  _184
REMARK   81  A    between atoms: _187  and  _189
REMARK   82  A    between atoms: _189  and  _190
REMARK   83  A    between atoms: _189  and  _192
REMARK   84  A    between atoms: _192  and  _193
REMARK   85  A    between atoms: _195  and  _197
REMARK   86  A    between atoms: _197  and  _198
REMARK   87  A    between atoms: _197  and  _200
REMARK   88  A    between atoms: _200  and  _201
REMARK   89  A    between atoms: _211  and  _213
REMARK   90  A    between atoms: _213  and  _214
REMARK   91  A    between atoms: _216  and  _218
REMARK   92  A    between atoms: _218  and  _219
REMARK   93  A    between atoms: _218  and  _221
REMARK   94  A    between atoms: _221  and  _222
REMARK   95  A    between atoms: _224  and  _226
REMARK   96  A    between atoms: _226  and  _227
REMARK   97  A    between atoms: _229  and  _231
REMARK   98  A    between atoms: _231  and  _232
REMARK   99  A    between atoms: _231  and  _234
REMARK  100  A    between atoms: _234  and  _235
REMARK  101  A    between atoms: _236  and  _238
REMARK  102  A    between atoms: _238  and  _239
REMARK  103  A    between atoms: _242  and  _244
REMARK  104  A    between atoms: _244  and  _245
REMARK  105  A    between atoms: _244  and  _247
REMARK  106  A    between atoms: _247  and  _248
REMARK  107  A    between atoms: _248  and  _249
REMARK  108  A    between atoms: _254  and  _256
REMARK  109  A    between atoms: _256  and  _257
REMARK  110  A    between atoms: _256  and  _259
REMARK  111  A    between atoms: _259  and  _260
REMARK  112  A    between atoms: _260  and  _261
REMARK  113  A    between atoms: _261  and  _262
REMARK  114  A    between atoms: _262  and  _263
REMARK  115  A    between atoms: _268  and  _269
REMARK  116  A    between atoms: _274  and  _276
REMARK  117  A    between atoms: _276  and  _277
REMARK  118  A    between atoms: _279  and  _281
REMARK  119  A    between atoms: _281  and  _282
REMARK  120  A    between atoms: _281  and  _284
REMARK  121  A    between atoms: _287  and  _289
REMARK  122  A    between atoms: _289  and  _290
REMARK  123  A    between atoms: _289  and  _292
REMARK  124  A    between atoms: _292  and  _293
REMARK  125  A    between atoms: _298  and  _299
REMARK                            x       y       z     vdW  Elec       q    Type
REMARK                         _______ _______ _______ _____ _____    ______ ____
ROOT
ATOM      1  O   HOH     1      61.275  70.283 -27.850  0.00  0.00    +0.000 OA
ENDROOT
TORSDOF 0
