REMARK  Name = ../refined-set-2016/5byi/5byi_pocket.pdb
REMARK  155 active torsions:
REMARK  status: ('A' for Active; 'I' for Inactive)
REMARK    1  A    between atoms: _1  and  _3
REMARK    2  A    between atoms: _3  and  _4
REMARK    3  A    between atoms: _3  and  _6
REMARK    4  A    between atoms: _6  and  _7
REMARK    5  A    between atoms: _17  and  _19
REMARK    6  A    between atoms: _19  and  _20
REMARK    7  A    between atoms: _19  and  _22
REMARK    8  A    between atoms: _22  and  _23
REMARK    9  A    between atoms: _28  and  _29
REMARK   10  A    between atoms: _31  and  _33
REMARK   11  A    between atoms: _33  and  _34
REMARK   12  A    between atoms: _33  and  _36
REMARK   13  A    between atoms: _36  and  _37
REMARK   14  A    between atoms: _43  and  _45
REMARK   15  A    between atoms: _45  and  _46
REMARK   16  A    between atoms: _45  and  _48
REMARK   17  A    between atoms: _48  and  _49
REMARK   18  A    between atoms: _52  and  _53
REMARK   19  A    between atoms: _58  and  _60
REMARK   20  A    between atoms: _60  and  _61
REMARK   21  A    between atoms: _60  and  _63
REMARK   22  A    between atoms: _63  and  _64
REMARK   23  A    between atoms: _69  and  _71
REMARK   24  A    between atoms: _71  and  _72
REMARK   25  A    between atoms: _71  and  _74
REMARK   26  A    between atoms: _74  and  _75
REMARK   27  A    between atoms: _80  and  _82
REMARK   28  A    between atoms: _82  and  _83
REMARK   29  A    between atoms: _86  and  _88
REMARK   30  A    between atoms: _88  and  _89
REMARK   31  A    between atoms: _88  and  _91
REMARK   32  A    between atoms: _91  and  _92
REMARK   33  A    between atoms: _97  and  _99
REMARK   34  A    between atoms: _99  and  _100
REMARK   35  A    between atoms: _99  and  _102
REMARK   36  A    between atoms: _102  and  _103
REMARK   37  A    between atoms: _106  and  _108
REMARK   38  A    between atoms: _108  and  _109
REMARK   39  A    between atoms: _108  and  _111
REMARK   40  A    between atoms: _111  and  _112
REMARK   41  A    between atoms: _112  and  _113
REMARK   42  A    between atoms: _118  and  _120
REMARK   43  A    between atoms: _120  and  _121
REMARK   44  A    between atoms: _120  and  _123
REMARK   45  A    between atoms: _123  and  _124
REMARK   46  A    between atoms: _130  and  _132
REMARK   47  A    between atoms: _143  and  _146
REMARK   48  A    between atoms: _146  and  _147
REMARK   49  A    between atoms: _155  and  _156
REMARK   50  A    between atoms: _164  and  _166
REMARK   51  A    between atoms: _166  and  _167
REMARK   52  A    between atoms: _166  and  _169
REMARK   53  A    between atoms: _169  and  _170
REMARK   54  A    between atoms: _170  and  _171
REMARK   55  A    between atoms: _174  and  _176
REMARK   56  A    between atoms: _176  and  _177
REMARK   57  A    between atoms: _176  and  _179
REMARK   58  A    between atoms: _179  and  _180
REMARK   59  A    between atoms: _185  and  _187
REMARK   60  A    between atoms: _187  and  _188
REMARK   61  A    between atoms: _187  and  _190
REMARK   62  A    between atoms: _190  and  _191
REMARK   63  A    between atoms: _191  and  _192
REMARK   64  A    between atoms: _195  and  _197
REMARK   65  A    between atoms: _197  and  _198
REMARK   66  A    between atoms: _197  and  _200
REMARK   67  A    between atoms: _200  and  _201
REMARK   68  A    between atoms: _204  and  _206
REMARK   69  A    between atoms: _206  and  _207
REMARK   70  A    between atoms: _206  and  _209
REMARK   71  A    between atoms: _209  and  _210
REMARK   72  A    between atoms: _211  and  ZN_436
REMARK   73  A    between atoms: _215  and  _217
REMARK   74  A    between atoms: _217  and  _218
REMARK   75  A    between atoms: _217  and  _220
REMARK   76  A    between atoms: _220  and  _221
REMARK   77  A    between atoms: _224  and  _226
REMARK   78  A    between atoms: _226  and  _227
REMARK   79  A    between atoms: _226  and  _229
REMARK   80  A    between atoms: _232  and  _234
REMARK   81  A    between atoms: _234  and  _235
REMARK   82  A    between atoms: _234  and  _237
REMARK   83  A    between atoms: _237  and  _238
REMARK   84  A    between atoms: _243  and  _245
REMARK   85  A    between atoms: _245  and  _246
REMARK   86  A    between atoms: _245  and  _248
REMARK   87  A    between atoms: _248  and  _249
REMARK   88  A    between atoms: _255  and  _257
REMARK   89  A    between atoms: _257  and  _258
REMARK   90  A    between atoms: _260  and  _262
REMARK   91  A    between atoms: _262  and  _263
REMARK   92  A    between atoms: _262  and  _265
REMARK   93  A    between atoms: _268  and  _270
REMARK   94  A    between atoms: _270  and  _271
REMARK   95  A    between atoms: _270  and  _273
REMARK   96  A    between atoms: _273  and  _274
REMARK   97  A    between atoms: _277  and  _279
REMARK   98  A    between atoms: _279  and  _280
REMARK   99  A    between atoms: _283  and  _285
REMARK  100  A    between atoms: _285  and  _286
REMARK  101  A    between atoms: _285  and  _288
REMARK  102  A    between atoms: _291  and  _293
REMARK  103  A    between atoms: _293  and  _294
REMARK  104  A    between atoms: _293  and  _296
REMARK  105  A    between atoms: _296  and  _297
REMARK  106  A    between atoms: _300  and  _302
REMARK  107  A    between atoms: _302  and  _303
REMARK  108  A    between atoms: _305  and  _307
REMARK  109  A    between atoms: _307  and  _308
REMARK  110  A    between atoms: _310  and  _312
REMARK  111  A    between atoms: _312  and  _313
REMARK  112  A    between atoms: _312  and  _315
REMARK  113  A    between atoms: _315  and  _316
REMARK  114  A    between atoms: _318  and  _320
REMARK  115  A    between atoms: _320  and  _321
REMARK  116  A    between atoms: _320  and  _323
REMARK  117  A    between atoms: _323  and  _324
REMARK  118  A    between atoms: _327  and  _329
REMARK  119  A    between atoms: _329  and  _330
REMARK  120  A    between atoms: _329  and  _332
REMARK  121  A    between atoms: _332  and  _333
REMARK  122  A    between atoms: _336  and  _338
REMARK  123  A    between atoms: _338  and  _339
REMARK  124  A    between atoms: _338  and  _341
REMARK  125  A    between atoms: _341  and  _342
REMARK  126  A    between atoms: _346  and  _347
REMARK  127  A    between atoms: _353  and  _354
REMARK  128  A    between atoms: _359  and  _361
REMARK  129  A    between atoms: _361  and  _362
REMARK  130  A    between atoms: _361  and  _364
REMARK  131  A    between atoms: _364  and  _365
REMARK  132  A    between atoms: _368  and  _370
REMARK  133  A    between atoms: _370  and  _371
REMARK  134  A    between atoms: _370  and  _373
REMARK  135  A    between atoms: _373  and  _374
REMARK  136  A    between atoms: _377  and  _379
REMARK  137  A    between atoms: _379  and  _380
REMARK  138  A    between atoms: _379  and  _382
REMARK  139  A    between atoms: _384  and  _386
REMARK  140  A    between atoms: _386  and  _387
REMARK  141  A    between atoms: _386  and  _389
REMARK  142  A    between atoms: _392  and  _394
REMARK  143  A    between atoms: _394  and  _395
REMARK  144  A    between atoms: _394  and  _397
REMARK  145  A    between atoms: _397  and  _398
REMARK  146  A    between atoms: _408  and  _410
REMARK  147  A    between atoms: _410  and  _411
REMARK  148  A    between atoms: _410  and  _413
REMARK  149  A    between atoms: _413  and  _414
REMARK  150  A    between atoms: _419  and  _421
REMARK  151  A    between atoms: _421  and  _422
REMARK  152  A    between atoms: _421  and  _424
REMARK  153  A    between atoms: _424  and  _425
REMARK  154  A    between atoms: _425  and  _426
REMARK  155  A    between atoms: _426  and  _427
REMARK                            x       y       z     vdW  Elec       q    Type
REMARK                         _______ _______ _______ _____ _____    ______ ____
ROOT
ATOM      1  CG  TRP A   1      26.822   0.821  11.936  0.00  0.00    -0.002 A 
ATOM      2  CD2 TRP A   1      25.467   0.342  11.939  0.00  0.00    +0.013 A 
ATOM      3  CE3 TRP A   1      24.872  -0.901  12.216  0.00  0.00    +0.001 A 
ATOM      4  CZ3 TRP A   1      23.494  -1.018  12.103  0.00  0.00    +0.000 A 
ATOM      5  CH2 TRP A   1      22.708   0.083  11.713  0.00  0.00    +0.001 A 
ATOM      6  CZ2 TRP A   1      23.258   1.306  11.445  0.00  0.00    +0.017 A 
ATOM      7  CE2 TRP A   1      24.642   1.425  11.554  0.00  0.00    +0.056 A 
ATOM      8  NE1 TRP A   1      25.458   2.507  11.348  0.00  0.00    -0.352 N 
ATOM      9  HE1 TRP A   1      25.143   3.455  11.059  0.00  0.00    +0.166 HD
ATOM     10  CD1 TRP A   1      26.760   2.137  11.585  0.00  0.00    +0.068 A 
ENDROOT
BRANCH   1  11
ATOM     11  CB  TRP A   1      28.054   0.035  12.305  0.00  0.00    +0.053 C 
BRANCH  11  12
ATOM     12  CA  TRP A   1      28.705  -0.701  11.133  0.00  0.00    +0.137 C 
BRANCH  12  13
ATOM     13  N   TRP A   1      29.335   0.240  10.223  0.00  0.00    -0.239 NA
ATOM     14  H   TRP A   1      29.224   1.262  10.379  0.00  0.00    +0.142 HD
ENDBRANCH  12  13
BRANCH  12  15
ATOM     15  C   TRP A   1      27.684  -1.556  10.395  0.00  0.00    +0.224 C 
ATOM     16  O   TRP A   1      27.130  -1.161   9.368  0.00  0.00    -0.287 OA
ENDBRANCH  12  15
ENDBRANCH  11  12
ENDBRANCH   1  11
TORSDOF 4
REMARK  Name = ../refined-set-2016/5byi/5byi_pocket.pdb
REMARK  155 active torsions:
REMARK  status: ('A' for Active; 'I' for Inactive)
REMARK    1  A    between atoms: _1  and  _3
REMARK    2  A    between atoms: _3  and  _4
REMARK    3  A    between atoms: _3  and  _6
REMARK    4  A    between atoms: _6  and  _7
REMARK    5  A    between atoms: _17  and  _19
REMARK    6  A    between atoms: _19  and  _20
REMARK    7  A    between atoms: _19  and  _22
REMARK    8  A    between atoms: _22  and  _23
REMARK    9  A    between atoms: _28  and  _29
REMARK   10  A    between atoms: _31  and  _33
REMARK   11  A    between atoms: _33  and  _34
REMARK   12  A    between atoms: _33  and  _36
REMARK   13  A    between atoms: _36  and  _37
REMARK   14  A    between atoms: _43  and  _45
REMARK   15  A    between atoms: _45  and  _46
REMARK   16  A    between atoms: _45  and  _48
REMARK   17  A    between atoms: _48  and  _49
REMARK   18  A    between atoms: _52  and  _53
REMARK   19  A    between atoms: _58  and  _60
REMARK   20  A    between atoms: _60  and  _61
REMARK   21  A    between atoms: _60  and  _63
REMARK   22  A    between atoms: _63  and  _64
REMARK   23  A    between atoms: _69  and  _71
REMARK   24  A    between atoms: _71  and  _72
REMARK   25  A    between atoms: _71  and  _74
REMARK   26  A    between atoms: _74  and  _75
REMARK   27  A    between atoms: _80  and  _82
REMARK   28  A    between atoms: _82  and  _83
REMARK   29  A    between atoms: _86  and  _88
REMARK   30  A    between atoms: _88  and  _89
REMARK   31  A    between atoms: _88  and  _91
REMARK   32  A    between atoms: _91  and  _92
REMARK   33  A    between atoms: _97  and  _99
REMARK   34  A    between atoms: _99  and  _100
REMARK   35  A    between atoms: _99  and  _102
REMARK   36  A    between atoms: _102  and  _103
REMARK   37  A    between atoms: _106  and  _108
REMARK   38  A    between atoms: _108  and  _109
REMARK   39  A    between atoms: _108  and  _111
REMARK   40  A    between atoms: _111  and  _112
REMARK   41  A    between atoms: _112  and  _113
REMARK   42  A    between atoms: _118  and  _120
REMARK   43  A    between atoms: _120  and  _121
REMARK   44  A    between atoms: _120  and  _123
REMARK   45  A    between atoms: _123  and  _124
REMARK   46  A    between atoms: _130  and  _132
REMARK   47  A    between atoms: _143  and  _146
REMARK   48  A    between atoms: _146  and  _147
REMARK   49  A    between atoms: _155  and  _156
REMARK   50  A    between atoms: _164  and  _166
REMARK   51  A    between atoms: _166  and  _167
REMARK   52  A    between atoms: _166  and  _169
REMARK   53  A    between atoms: _169  and  _170
REMARK   54  A    between atoms: _170  and  _171
REMARK   55  A    between atoms: _174  and  _176
REMARK   56  A    between atoms: _176  and  _177
REMARK   57  A    between atoms: _176  and  _179
REMARK   58  A    between atoms: _179  and  _180
REMARK   59  A    between atoms: _185  and  _187
REMARK   60  A    between atoms: _187  and  _188
REMARK   61  A    between atoms: _187  and  _190
REMARK   62  A    between atoms: _190  and  _191
REMARK   63  A    between atoms: _191  and  _192
REMARK   64  A    between atoms: _195  and  _197
REMARK   65  A    between atoms: _197  and  _198
REMARK   66  A    between atoms: _197  and  _200
REMARK   67  A    between atoms: _200  and  _201
REMARK   68  A    between atoms: _204  and  _206
REMARK   69  A    between atoms: _206  and  _207
REMARK   70  A    between atoms: _206  and  _209
REMARK   71  A    between atoms: _209  and  _210
REMARK   72  A    between atoms: _211  and  ZN_436
REMARK   73  A    between atoms: _215  and  _217
REMARK   74  A    between atoms: _217  and  _218
REMARK   75  A    between atoms: _217  and  _220
REMARK   76  A    between atoms: _220  and  _221
REMARK   77  A    between atoms: _224  and  _226
REMARK   78  A    between atoms: _226  and  _227
REMARK   79  A    between atoms: _226  and  _229
REMARK   80  A    between atoms: _232  and  _234
REMARK   81  A    between atoms: _234  and  _235
REMARK   82  A    between atoms: _234  and  _237
REMARK   83  A    between atoms: _237  and  _238
REMARK   84  A    between atoms: _243  and  _245
REMARK   85  A    between atoms: _245  and  _246
REMARK   86  A    between atoms: _245  and  _248
REMARK   87  A    between atoms: _248  and  _249
REMARK   88  A    between atoms: _255  and  _257
REMARK   89  A    between atoms: _257  and  _258
REMARK   90  A    between atoms: _260  and  _262
REMARK   91  A    between atoms: _262  and  _263
REMARK   92  A    between atoms: _262  and  _265
REMARK   93  A    between atoms: _268  and  _270
REMARK   94  A    between atoms: _270  and  _271
REMARK   95  A    between atoms: _270  and  _273
REMARK   96  A    between atoms: _273  and  _274
REMARK   97  A    between atoms: _277  and  _279
REMARK   98  A    between atoms: _279  and  _280
REMARK   99  A    between atoms: _283  and  _285
REMARK  100  A    between atoms: _285  and  _286
REMARK  101  A    between atoms: _285  and  _288
REMARK  102  A    between atoms: _291  and  _293
REMARK  103  A    between atoms: _293  and  _294
REMARK  104  A    between atoms: _293  and  _296
REMARK  105  A    between atoms: _296  and  _297
REMARK  106  A    between atoms: _300  and  _302
REMARK  107  A    between atoms: _302  and  _303
REMARK  108  A    between atoms: _305  and  _307
REMARK  109  A    between atoms: _307  and  _308
REMARK  110  A    between atoms: _310  and  _312
REMARK  111  A    between atoms: _312  and  _313
REMARK  112  A    between atoms: _312  and  _315
REMARK  113  A    between atoms: _315  and  _316
REMARK  114  A    between atoms: _318  and  _320
REMARK  115  A    between atoms: _320  and  _321
REMARK  116  A    between atoms: _320  and  _323
REMARK  117  A    between atoms: _323  and  _324
REMARK  118  A    between atoms: _327  and  _329
REMARK  119  A    between atoms: _329  and  _330
REMARK  120  A    between atoms: _329  and  _332
REMARK  121  A    between atoms: _332  and  _333
REMARK  122  A    between atoms: _336  and  _338
REMARK  123  A    between atoms: _338  and  _339
REMARK  124  A    between atoms: _338  and  _341
REMARK  125  A    between atoms: _341  and  _342
REMARK  126  A    between atoms: _346  and  _347
REMARK  127  A    between atoms: _353  and  _354
REMARK  128  A    between atoms: _359  and  _361
REMARK  129  A    between atoms: _361  and  _362
REMARK  130  A    between atoms: _361  and  _364
REMARK  131  A    between atoms: _364  and  _365
REMARK  132  A    between atoms: _368  and  _370
REMARK  133  A    between atoms: _370  and  _371
REMARK  134  A    between atoms: _370  and  _373
REMARK  135  A    between atoms: _373  and  _374
REMARK  136  A    between atoms: _377  and  _379
REMARK  137  A    between atoms: _379  and  _380
REMARK  138  A    between atoms: _379  and  _382
REMARK  139  A    between atoms: _384  and  _386
REMARK  140  A    between atoms: _386  and  _387
REMARK  141  A    between atoms: _386  and  _389
REMARK  142  A    between atoms: _392  and  _394
REMARK  143  A    between atoms: _394  and  _395
REMARK  144  A    between atoms: _394  and  _397
REMARK  145  A    between atoms: _397  and  _398
REMARK  146  A    between atoms: _408  and  _410
REMARK  147  A    between atoms: _410  and  _411
REMARK  148  A    between atoms: _410  and  _413
REMARK  149  A    between atoms: _413  and  _414
REMARK  150  A    between atoms: _419  and  _421
REMARK  151  A    between atoms: _421  and  _422
REMARK  152  A    between atoms: _421  and  _424
REMARK  153  A    between atoms: _424  and  _425
REMARK  154  A    between atoms: _425  and  _426
REMARK  155  A    between atoms: _426  and  _427
REMARK                            x       y       z     vdW  Elec       q    Type
REMARK                         _______ _______ _______ _____ _____    ______ ____
ROOT
ATOM      1  CG  TYR A   1      23.088  -6.348  11.886  0.00  0.00    -0.020 A 
ATOM      2  CD2 TYR A   1      22.679  -6.314  13.217  0.00  0.00    -0.001 A 
ATOM      3  CE2 TYR A   1      21.822  -5.327  13.669  0.00  0.00    +0.036 A 
ATOM      4  CZ  TYR A   1      21.361  -4.362  12.802  0.00  0.00    +0.134 A 
ATOM      5  CE1 TYR A   1      21.745  -4.374  11.480  0.00  0.00    +0.036 A 
ATOM      6  CD1 TYR A   1      22.608  -5.360  11.029  0.00  0.00    -0.001 A 
ENDROOT
BRANCH   4   7
ATOM      7  OH  TYR A   1      20.511  -3.382  13.203  0.00  0.00    -0.506 OA
ATOM      8  HH  TYR A   1      20.318  -3.489  14.168  0.00  0.00    +0.292 HD
ENDBRANCH   4   7
BRANCH   1   9
ATOM      9  CB  TYR A   1      24.036  -7.424  11.397  0.00  0.00    +0.051 C 
BRANCH   9  10
ATOM     10  CA  TYR A   1      25.508  -7.064  11.645  0.00  0.00    +0.137 C 
BRANCH  10  11
ATOM     11  N   TYR A   1      25.894  -5.934  10.806  0.00  0.00    -0.239 NA
ATOM     12  H   TYR A   1      25.973  -6.067   9.778  0.00  0.00    +0.142 HD
ENDBRANCH  10  11
BRANCH  10  13
ATOM     13  C   TYR A   1      26.439  -8.274  11.505  0.00  0.00    +0.224 C 
ATOM     14  O   TYR A   1      26.224  -9.301  12.154  0.00  0.00    -0.287 OA
ENDBRANCH  10  13
ENDBRANCH   9  10
ENDBRANCH   1   9
TORSDOF 5
REMARK  Name = ../refined-set-2016/5byi/5byi_pocket.pdb
REMARK  155 active torsions:
REMARK  status: ('A' for Active; 'I' for Inactive)
REMARK    1  A    between atoms: _1  and  _3
REMARK    2  A    between atoms: _3  and  _4
REMARK    3  A    between atoms: _3  and  _6
REMARK    4  A    between atoms: _6  and  _7
REMARK    5  A    between atoms: _17  and  _19
REMARK    6  A    between atoms: _19  and  _20
REMARK    7  A    between atoms: _19  and  _22
REMARK    8  A    between atoms: _22  and  _23
REMARK    9  A    between atoms: _28  and  _29
REMARK   10  A    between atoms: _31  and  _33
REMARK   11  A    between atoms: _33  and  _34
REMARK   12  A    between atoms: _33  and  _36
REMARK   13  A    between atoms: _36  and  _37
REMARK   14  A    between atoms: _43  and  _45
REMARK   15  A    between atoms: _45  and  _46
REMARK   16  A    between atoms: _45  and  _48
REMARK   17  A    between atoms: _48  and  _49
REMARK   18  A    between atoms: _52  and  _53
REMARK   19  A    between atoms: _58  and  _60
REMARK   20  A    between atoms: _60  and  _61
REMARK   21  A    between atoms: _60  and  _63
REMARK   22  A    between atoms: _63  and  _64
REMARK   23  A    between atoms: _69  and  _71
REMARK   24  A    between atoms: _71  and  _72
REMARK   25  A    between atoms: _71  and  _74
REMARK   26  A    between atoms: _74  and  _75
REMARK   27  A    between atoms: _80  and  _82
REMARK   28  A    between atoms: _82  and  _83
REMARK   29  A    between atoms: _86  and  _88
REMARK   30  A    between atoms: _88  and  _89
REMARK   31  A    between atoms: _88  and  _91
REMARK   32  A    between atoms: _91  and  _92
REMARK   33  A    between atoms: _97  and  _99
REMARK   34  A    between atoms: _99  and  _100
REMARK   35  A    between atoms: _99  and  _102
REMARK   36  A    between atoms: _102  and  _103
REMARK   37  A    between atoms: _106  and  _108
REMARK   38  A    between atoms: _108  and  _109
REMARK   39  A    between atoms: _108  and  _111
REMARK   40  A    between atoms: _111  and  _112
REMARK   41  A    between atoms: _112  and  _113
REMARK   42  A    between atoms: _118  and  _120
REMARK   43  A    between atoms: _120  and  _121
REMARK   44  A    between atoms: _120  and  _123
REMARK   45  A    between atoms: _123  and  _124
REMARK   46  A    between atoms: _130  and  _132
REMARK   47  A    between atoms: _143  and  _146
REMARK   48  A    between atoms: _146  and  _147
REMARK   49  A    between atoms: _155  and  _156
REMARK   50  A    between atoms: _164  and  _166
REMARK   51  A    between atoms: _166  and  _167
REMARK   52  A    between atoms: _166  and  _169
REMARK   53  A    between atoms: _169  and  _170
REMARK   54  A    between atoms: _170  and  _171
REMARK   55  A    between atoms: _174  and  _176
REMARK   56  A    between atoms: _176  and  _177
REMARK   57  A    between atoms: _176  and  _179
REMARK   58  A    between atoms: _179  and  _180
REMARK   59  A    between atoms: _185  and  _187
REMARK   60  A    between atoms: _187  and  _188
REMARK   61  A    between atoms: _187  and  _190
REMARK   62  A    between atoms: _190  and  _191
REMARK   63  A    between atoms: _191  and  _192
REMARK   64  A    between atoms: _195  and  _197
REMARK   65  A    between atoms: _197  and  _198
REMARK   66  A    between atoms: _197  and  _200
REMARK   67  A    between atoms: _200  and  _201
REMARK   68  A    between atoms: _204  and  _206
REMARK   69  A    between atoms: _206  and  _207
REMARK   70  A    between atoms: _206  and  _209
REMARK   71  A    between atoms: _209  and  _210
REMARK   72  A    between atoms: _211  and  ZN_436
REMARK   73  A    between atoms: _215  and  _217
REMARK   74  A    between atoms: _217  and  _218
REMARK   75  A    between atoms: _217  and  _220
REMARK   76  A    between atoms: _220  and  _221
REMARK   77  A    between atoms: _224  and  _226
REMARK   78  A    between atoms: _226  and  _227
REMARK   79  A    between atoms: _226  and  _229
REMARK   80  A    between atoms: _232  and  _234
REMARK   81  A    between atoms: _234  and  _235
REMARK   82  A    between atoms: _234  and  _237
REMARK   83  A    between atoms: _237  and  _238
REMARK   84  A    between atoms: _243  and  _245
REMARK   85  A    between atoms: _245  and  _246
REMARK   86  A    between atoms: _245  and  _248
REMARK   87  A    between atoms: _248  and  _249
REMARK   88  A    between atoms: _255  and  _257
REMARK   89  A    between atoms: _257  and  _258
REMARK   90  A    between atoms: _260  and  _262
REMARK   91  A    between atoms: _262  and  _263
REMARK   92  A    between atoms: _262  and  _265
REMARK   93  A    between atoms: _268  and  _270
REMARK   94  A    between atoms: _270  and  _271
REMARK   95  A    between atoms: _270  and  _273
REMARK   96  A    between atoms: _273  and  _274
REMARK   97  A    between atoms: _277  and  _279
REMARK   98  A    between atoms: _279  and  _280
REMARK   99  A    between atoms: _283  and  _285
REMARK  100  A    between atoms: _285  and  _286
REMARK  101  A    between atoms: _285  and  _288
REMARK  102  A    between atoms: _291  and  _293
REMARK  103  A    between atoms: _293  and  _294
REMARK  104  A    between atoms: _293  and  _296
REMARK  105  A    between atoms: _296  and  _297
REMARK  106  A    between atoms: _300  and  _302
REMARK  107  A    between atoms: _302  and  _303
REMARK  108  A    between atoms: _305  and  _307
REMARK  109  A    between atoms: _307  and  _308
REMARK  110  A    between atoms: _310  and  _312
REMARK  111  A    between atoms: _312  and  _313
REMARK  112  A    between atoms: _312  and  _315
REMARK  113  A    between atoms: _315  and  _316
REMARK  114  A    between atoms: _318  and  _320
REMARK  115  A    between atoms: _320  and  _321
REMARK  116  A    between atoms: _320  and  _323
REMARK  117  A    between atoms: _323  and  _324
REMARK  118  A    between atoms: _327  and  _329
REMARK  119  A    between atoms: _329  and  _330
REMARK  120  A    between atoms: _329  and  _332
REMARK  121  A    between atoms: _332  and  _333
REMARK  122  A    between atoms: _336  and  _338
REMARK  123  A    between atoms: _338  and  _339
REMARK  124  A    between atoms: _338  and  _341
REMARK  125  A    between atoms: _341  and  _342
REMARK  126  A    between atoms: _346  and  _347
REMARK  127  A    between atoms: _353  and  _354
REMARK  128  A    between atoms: _359  and  _361
REMARK  129  A    between atoms: _361  and  _362
REMARK  130  A    between atoms: _361  and  _364
REMARK  131  A    between atoms: _364  and  _365
REMARK  132  A    between atoms: _368  and  _370
REMARK  133  A    between atoms: _370  and  _371
REMARK  134  A    between atoms: _370  and  _373
REMARK  135  A    between atoms: _373  and  _374
REMARK  136  A    between atoms: _377  and  _379
REMARK  137  A    between atoms: _379  and  _380
REMARK  138  A    between atoms: _379  and  _382
REMARK  139  A    between atoms: _384  and  _386
REMARK  140  A    between atoms: _386  and  _387
REMARK  141  A    between atoms: _386  and  _389
REMARK  142  A    between atoms: _392  and  _394
REMARK  143  A    between atoms: _394  and  _395
REMARK  144  A    between atoms: _394  and  _397
REMARK  145  A    between atoms: _397  and  _398
REMARK  146  A    between atoms: _408  and  _410
REMARK  147  A    between atoms: _410  and  _411
REMARK  148  A    between atoms: _410  and  _413
REMARK  149  A    between atoms: _413  and  _414
REMARK  150  A    between atoms: _419  and  _421
REMARK  151  A    between atoms: _421  and  _422
REMARK  152  A    between atoms: _421  and  _424
REMARK  153  A    between atoms: _424  and  _425
REMARK  154  A    between atoms: _425  and  _426
REMARK  155  A    between atoms: _426  and  _427
REMARK                            x       y       z     vdW  Elec       q    Type
REMARK                         _______ _______ _______ _____ _____    ______ ____
ROOT
ATOM      1  CB  PHE A   1      28.416   4.140  18.819  0.00  0.00    +0.051 C 
ENDROOT
BRANCH   1   2
ATOM      2  CG  PHE A   1      28.335   4.497  17.360  0.00  0.00    -0.020 A 
ATOM      3  CD2 PHE A   1      27.905   5.762  16.970  0.00  0.00    -0.004 A 
ATOM      4  CE2 PHE A   1      27.877   6.119  15.624  0.00  0.00    -0.000 A 
ATOM      5  CZ  PHE A   1      28.265   5.205  14.652  0.00  0.00    -0.000 A 
ATOM      6  CE1 PHE A   1      28.700   3.940  15.029  0.00  0.00    -0.000 A 
ATOM      7  CD1 PHE A   1      28.723   3.590  16.378  0.00  0.00    -0.004 A 
ENDBRANCH   1   2
BRANCH   1   8
ATOM      8  CA  PHE A   1      29.730   4.596  19.486  0.00  0.00    +0.137 C 
BRANCH   8   9
ATOM      9  N   PHE A   1      30.891   4.086  18.750  0.00  0.00    -0.239 NA
ATOM     10  H   PHE A   1      31.158   3.087  18.857  0.00  0.00    +0.142 HD
ENDBRANCH   8   9
BRANCH   8  11
ATOM     11  C   PHE A   1      29.827   4.123  20.937  0.00  0.00    +0.224 C 
ATOM     12  O   PHE A   1      29.159   3.168  21.325  0.00  0.00    -0.287 OA
ENDBRANCH   8  11
ENDBRANCH   1   8
TORSDOF 4
REMARK  Name = ../refined-set-2016/5byi/5byi_pocket.pdb
REMARK  155 active torsions:
REMARK  status: ('A' for Active; 'I' for Inactive)
REMARK    1  A    between atoms: _1  and  _3
REMARK    2  A    between atoms: _3  and  _4
REMARK    3  A    between atoms: _3  and  _6
REMARK    4  A    between atoms: _6  and  _7
REMARK    5  A    between atoms: _17  and  _19
REMARK    6  A    between atoms: _19  and  _20
REMARK    7  A    between atoms: _19  and  _22
REMARK    8  A    between atoms: _22  and  _23
REMARK    9  A    between atoms: _28  and  _29
REMARK   10  A    between atoms: _31  and  _33
REMARK   11  A    between atoms: _33  and  _34
REMARK   12  A    between atoms: _33  and  _36
REMARK   13  A    between atoms: _36  and  _37
REMARK   14  A    between atoms: _43  and  _45
REMARK   15  A    between atoms: _45  and  _46
REMARK   16  A    between atoms: _45  and  _48
REMARK   17  A    between atoms: _48  and  _49
REMARK   18  A    between atoms: _52  and  _53
REMARK   19  A    between atoms: _58  and  _60
REMARK   20  A    between atoms: _60  and  _61
REMARK   21  A    between atoms: _60  and  _63
REMARK   22  A    between atoms: _63  and  _64
REMARK   23  A    between atoms: _69  and  _71
REMARK   24  A    between atoms: _71  and  _72
REMARK   25  A    between atoms: _71  and  _74
REMARK   26  A    between atoms: _74  and  _75
REMARK   27  A    between atoms: _80  and  _82
REMARK   28  A    between atoms: _82  and  _83
REMARK   29  A    between atoms: _86  and  _88
REMARK   30  A    between atoms: _88  and  _89
REMARK   31  A    between atoms: _88  and  _91
REMARK   32  A    between atoms: _91  and  _92
REMARK   33  A    between atoms: _97  and  _99
REMARK   34  A    between atoms: _99  and  _100
REMARK   35  A    between atoms: _99  and  _102
REMARK   36  A    between atoms: _102  and  _103
REMARK   37  A    between atoms: _106  and  _108
REMARK   38  A    between atoms: _108  and  _109
REMARK   39  A    between atoms: _108  and  _111
REMARK   40  A    between atoms: _111  and  _112
REMARK   41  A    between atoms: _112  and  _113
REMARK   42  A    between atoms: _118  and  _120
REMARK   43  A    between atoms: _120  and  _121
REMARK   44  A    between atoms: _120  and  _123
REMARK   45  A    between atoms: _123  and  _124
REMARK   46  A    between atoms: _130  and  _132
REMARK   47  A    between atoms: _143  and  _146
REMARK   48  A    between atoms: _146  and  _147
REMARK   49  A    between atoms: _155  and  _156
REMARK   50  A    between atoms: _164  and  _166
REMARK   51  A    between atoms: _166  and  _167
REMARK   52  A    between atoms: _166  and  _169
REMARK   53  A    between atoms: _169  and  _170
REMARK   54  A    between atoms: _170  and  _171
REMARK   55  A    between atoms: _174  and  _176
REMARK   56  A    between atoms: _176  and  _177
REMARK   57  A    between atoms: _176  and  _179
REMARK   58  A    between atoms: _179  and  _180
REMARK   59  A    between atoms: _185  and  _187
REMARK   60  A    between atoms: _187  and  _188
REMARK   61  A    between atoms: _187  and  _190
REMARK   62  A    between atoms: _190  and  _191
REMARK   63  A    between atoms: _191  and  _192
REMARK   64  A    between atoms: _195  and  _197
REMARK   65  A    between atoms: _197  and  _198
REMARK   66  A    between atoms: _197  and  _200
REMARK   67  A    between atoms: _200  and  _201
REMARK   68  A    between atoms: _204  and  _206
REMARK   69  A    between atoms: _206  and  _207
REMARK   70  A    between atoms: _206  and  _209
REMARK   71  A    between atoms: _209  and  _210
REMARK   72  A    between atoms: _211  and  ZN_436
REMARK   73  A    between atoms: _215  and  _217
REMARK   74  A    between atoms: _217  and  _218
REMARK   75  A    between atoms: _217  and  _220
REMARK   76  A    between atoms: _220  and  _221
REMARK   77  A    between atoms: _224  and  _226
REMARK   78  A    between atoms: _226  and  _227
REMARK   79  A    between atoms: _226  and  _229
REMARK   80  A    between atoms: _232  and  _234
REMARK   81  A    between atoms: _234  and  _235
REMARK   82  A    between atoms: _234  and  _237
REMARK   83  A    between atoms: _237  and  _238
REMARK   84  A    between atoms: _243  and  _245
REMARK   85  A    between atoms: _245  and  _246
REMARK   86  A    between atoms: _245  and  _248
REMARK   87  A    between atoms: _248  and  _249
REMARK   88  A    between atoms: _255  and  _257
REMARK   89  A    between atoms: _257  and  _258
REMARK   90  A    between atoms: _260  and  _262
REMARK   91  A    between atoms: _262  and  _263
REMARK   92  A    between atoms: _262  and  _265
REMARK   93  A    between atoms: _268  and  _270
REMARK   94  A    between atoms: _270  and  _271
REMARK   95  A    between atoms: _270  and  _273
REMARK   96  A    between atoms: _273  and  _274
REMARK   97  A    between atoms: _277  and  _279
REMARK   98  A    between atoms: _279  and  _280
REMARK   99  A    between atoms: _283  and  _285
REMARK  100  A    between atoms: _285  and  _286
REMARK  101  A    between atoms: _285  and  _288
REMARK  102  A    between atoms: _291  and  _293
REMARK  103  A    between atoms: _293  and  _294
REMARK  104  A    between atoms: _293  and  _296
REMARK  105  A    between atoms: _296  and  _297
REMARK  106  A    between atoms: _300  and  _302
REMARK  107  A    between atoms: _302  and  _303
REMARK  108  A    between atoms: _305  and  _307
REMARK  109  A    between atoms: _307  and  _308
REMARK  110  A    between atoms: _310  and  _312
REMARK  111  A    between atoms: _312  and  _313
REMARK  112  A    between atoms: _312  and  _315
REMARK  113  A    between atoms: _315  and  _316
REMARK  114  A    between atoms: _318  and  _320
REMARK  115  A    between atoms: _320  and  _321
REMARK  116  A    between atoms: _320  and  _323
REMARK  117  A    between atoms: _323  and  _324
REMARK  118  A    between atoms: _327  and  _329
REMARK  119  A    between atoms: _329  and  _330
REMARK  120  A    between atoms: _329  and  _332
REMARK  121  A    between atoms: _332  and  _333
REMARK  122  A    between atoms: _336  and  _338
REMARK  123  A    between atoms: _338  and  _339
REMARK  124  A    between atoms: _338  and  _341
REMARK  125  A    between atoms: _341  and  _342
REMARK  126  A    between atoms: _346  and  _347
REMARK  127  A    between atoms: _353  and  _354
REMARK  128  A    between atoms: _359  and  _361
REMARK  129  A    between atoms: _361  and  _362
REMARK  130  A    between atoms: _361  and  _364
REMARK  131  A    between atoms: _364  and  _365
REMARK  132  A    between atoms: _368  and  _370
REMARK  133  A    between atoms: _370  and  _371
REMARK  134  A    between atoms: _370  and  _373
REMARK  135  A    between atoms: _373  and  _374
REMARK  136  A    between atoms: _377  and  _379
REMARK  137  A    between atoms: _379  and  _380
REMARK  138  A    between atoms: _379  and  _382
REMARK  139  A    between atoms: _384  and  _386
REMARK  140  A    between atoms: _386  and  _387
REMARK  141  A    between atoms: _386  and  _389
REMARK  142  A    between atoms: _392  and  _394
REMARK  143  A    between atoms: _394  and  _395
REMARK  144  A    between atoms: _394  and  _397
REMARK  145  A    between atoms: _397  and  _398
REMARK  146  A    between atoms: _408  and  _410
REMARK  147  A    between atoms: _410  and  _411
REMARK  148  A    between atoms: _410  and  _413
REMARK  149  A    between atoms: _413  and  _414
REMARK  150  A    between atoms: _419  and  _421
REMARK  151  A    between atoms: _421  and  _422
REMARK  152  A    between atoms: _421  and  _424
REMARK  153  A    between atoms: _424  and  _425
REMARK  154  A    between atoms: _425  and  _426
REMARK  155  A    between atoms: _426  and  _427
REMARK                            x       y       z     vdW  Elec       q    Type
REMARK                         _______ _______ _______ _____ _____    ______ ____
ROOT
ATOM      1  C   SER A   1      18.748  -2.181  23.110  0.00  0.00    +0.244 C 
ATOM      2  N   PRO A   2      18.096  -3.329  22.885  0.00  0.00    -0.273 N 
ATOM      3  CA  PRO A   2      16.941  -3.861  23.601  0.00  0.00    +0.140 C 
ATOM      4  CB  PRO A   2      16.426  -4.903  22.623  0.00  0.00    +0.030 C 
ATOM      5  CG  PRO A   2      17.693  -5.466  22.037  0.00  0.00    +0.024 C 
ATOM      6  CD  PRO A   2      18.546  -4.254  21.826  0.00  0.00    +0.094 C 
ATOM      7  O   SER A   1      19.706  -1.827  22.426  0.00  0.00    -0.273 OA
ENDROOT
BRANCH   3   8
ATOM      8  C   PRO A   2      17.359  -4.515  24.914  0.00  0.00    +0.227 C 
ATOM      9  O   PRO A   2      18.538  -4.540  25.243  0.00  0.00    -0.286 OA
ENDBRANCH   3   8
BRANCH   1  10
ATOM     10  CA  SER A   1      18.230  -1.282  24.225  0.00  0.00    +0.175 C 
BRANCH  10  11
ATOM     11  N   SER A   1      19.296  -0.402  24.700  0.00  0.00    -0.236 NA
ATOM     12  H   SER A   1      19.788   0.194  24.004  0.00  0.00    +0.142 HD
ENDBRANCH  10  11
BRANCH  10  13
ATOM     13  CB  SER A   1      17.062  -0.436  23.720  0.00  0.00    +0.163 C 
BRANCH  13  14
ATOM     14  OG  SER A   1      16.463   0.271  24.790  0.00  0.00    -0.380 OA
ATOM     15  H   SER A   1      16.127  -0.373  25.463  0.00  0.00    +0.211 HD
ENDBRANCH  13  14
ENDBRANCH  10  13
ENDBRANCH   1  10
TORSDOF 5
REMARK  Name = ../refined-set-2016/5byi/5byi_pocket.pdb
REMARK  155 active torsions:
REMARK  status: ('A' for Active; 'I' for Inactive)
REMARK    1  A    between atoms: _1  and  _3
REMARK    2  A    between atoms: _3  and  _4
REMARK    3  A    between atoms: _3  and  _6
REMARK    4  A    between atoms: _6  and  _7
REMARK    5  A    between atoms: _17  and  _19
REMARK    6  A    between atoms: _19  and  _20
REMARK    7  A    between atoms: _19  and  _22
REMARK    8  A    between atoms: _22  and  _23
REMARK    9  A    between atoms: _28  and  _29
REMARK   10  A    between atoms: _31  and  _33
REMARK   11  A    between atoms: _33  and  _34
REMARK   12  A    between atoms: _33  and  _36
REMARK   13  A    between atoms: _36  and  _37
REMARK   14  A    between atoms: _43  and  _45
REMARK   15  A    between atoms: _45  and  _46
REMARK   16  A    between atoms: _45  and  _48
REMARK   17  A    between atoms: _48  and  _49
REMARK   18  A    between atoms: _52  and  _53
REMARK   19  A    between atoms: _58  and  _60
REMARK   20  A    between atoms: _60  and  _61
REMARK   21  A    between atoms: _60  and  _63
REMARK   22  A    between atoms: _63  and  _64
REMARK   23  A    between atoms: _69  and  _71
REMARK   24  A    between atoms: _71  and  _72
REMARK   25  A    between atoms: _71  and  _74
REMARK   26  A    between atoms: _74  and  _75
REMARK   27  A    between atoms: _80  and  _82
REMARK   28  A    between atoms: _82  and  _83
REMARK   29  A    between atoms: _86  and  _88
REMARK   30  A    between atoms: _88  and  _89
REMARK   31  A    between atoms: _88  and  _91
REMARK   32  A    between atoms: _91  and  _92
REMARK   33  A    between atoms: _97  and  _99
REMARK   34  A    between atoms: _99  and  _100
REMARK   35  A    between atoms: _99  and  _102
REMARK   36  A    between atoms: _102  and  _103
REMARK   37  A    between atoms: _106  and  _108
REMARK   38  A    between atoms: _108  and  _109
REMARK   39  A    between atoms: _108  and  _111
REMARK   40  A    between atoms: _111  and  _112
REMARK   41  A    between atoms: _112  and  _113
REMARK   42  A    between atoms: _118  and  _120
REMARK   43  A    between atoms: _120  and  _121
REMARK   44  A    between atoms: _120  and  _123
REMARK   45  A    between atoms: _123  and  _124
REMARK   46  A    between atoms: _130  and  _132
REMARK   47  A    between atoms: _143  and  _146
REMARK   48  A    between atoms: _146  and  _147
REMARK   49  A    between atoms: _155  and  _156
REMARK   50  A    between atoms: _164  and  _166
REMARK   51  A    between atoms: _166  and  _167
REMARK   52  A    between atoms: _166  and  _169
REMARK   53  A    between atoms: _169  and  _170
REMARK   54  A    between atoms: _170  and  _171
REMARK   55  A    between atoms: _174  and  _176
REMARK   56  A    between atoms: _176  and  _177
REMARK   57  A    between atoms: _176  and  _179
REMARK   58  A    between atoms: _179  and  _180
REMARK   59  A    between atoms: _185  and  _187
REMARK   60  A    between atoms: _187  and  _188
REMARK   61  A    between atoms: _187  and  _190
REMARK   62  A    between atoms: _190  and  _191
REMARK   63  A    between atoms: _191  and  _192
REMARK   64  A    between atoms: _195  and  _197
REMARK   65  A    between atoms: _197  and  _198
REMARK   66  A    between atoms: _197  and  _200
REMARK   67  A    between atoms: _200  and  _201
REMARK   68  A    between atoms: _204  and  _206
REMARK   69  A    between atoms: _206  and  _207
REMARK   70  A    between atoms: _206  and  _209
REMARK   71  A    between atoms: _209  and  _210
REMARK   72  A    between atoms: _211  and  ZN_436
REMARK   73  A    between atoms: _215  and  _217
REMARK   74  A    between atoms: _217  and  _218
REMARK   75  A    between atoms: _217  and  _220
REMARK   76  A    between atoms: _220  and  _221
REMARK   77  A    between atoms: _224  and  _226
REMARK   78  A    between atoms: _226  and  _227
REMARK   79  A    between atoms: _226  and  _229
REMARK   80  A    between atoms: _232  and  _234
REMARK   81  A    between atoms: _234  and  _235
REMARK   82  A    between atoms: _234  and  _237
REMARK   83  A    between atoms: _237  and  _238
REMARK   84  A    between atoms: _243  and  _245
REMARK   85  A    between atoms: _245  and  _246
REMARK   86  A    between atoms: _245  and  _248
REMARK   87  A    between atoms: _248  and  _249
REMARK   88  A    between atoms: _255  and  _257
REMARK   89  A    between atoms: _257  and  _258
REMARK   90  A    between atoms: _260  and  _262
REMARK   91  A    between atoms: _262  and  _263
REMARK   92  A    between atoms: _262  and  _265
REMARK   93  A    between atoms: _268  and  _270
REMARK   94  A    between atoms: _270  and  _271
REMARK   95  A    between atoms: _270  and  _273
REMARK   96  A    between atoms: _273  and  _274
REMARK   97  A    between atoms: _277  and  _279
REMARK   98  A    between atoms: _279  and  _280
REMARK   99  A    between atoms: _283  and  _285
REMARK  100  A    between atoms: _285  and  _286
REMARK  101  A    between atoms: _285  and  _288
REMARK  102  A    between atoms: _291  and  _293
REMARK  103  A    between atoms: _293  and  _294
REMARK  104  A    between atoms: _293  and  _296
REMARK  105  A    between atoms: _296  and  _297
REMARK  106  A    between atoms: _300  and  _302
REMARK  107  A    between atoms: _302  and  _303
REMARK  108  A    between atoms: _305  and  _307
REMARK  109  A    between atoms: _307  and  _308
REMARK  110  A    between atoms: _310  and  _312
REMARK  111  A    between atoms: _312  and  _313
REMARK  112  A    between atoms: _312  and  _315
REMARK  113  A    between atoms: _315  and  _316
REMARK  114  A    between atoms: _318  and  _320
REMARK  115  A    between atoms: _320  and  _321
REMARK  116  A    between atoms: _320  and  _323
REMARK  117  A    between atoms: _323  and  _324
REMARK  118  A    between atoms: _327  and  _329
REMARK  119  A    between atoms: _329  and  _330
REMARK  120  A    between atoms: _329  and  _332
REMARK  121  A    between atoms: _332  and  _333
REMARK  122  A    between atoms: _336  and  _338
REMARK  123  A    between atoms: _338  and  _339
REMARK  124  A    between atoms: _338  and  _341
REMARK  125  A    between atoms: _341  and  _342
REMARK  126  A    between atoms: _346  and  _347
REMARK  127  A    between atoms: _353  and  _354
REMARK  128  A    between atoms: _359  and  _361
REMARK  129  A    between atoms: _361  and  _362
REMARK  130  A    between atoms: _361  and  _364
REMARK  131  A    between atoms: _364  and  _365
REMARK  132  A    between atoms: _368  and  _370
REMARK  133  A    between atoms: _370  and  _371
REMARK  134  A    between atoms: _370  and  _373
REMARK  135  A    between atoms: _373  and  _374
REMARK  136  A    between atoms: _377  and  _379
REMARK  137  A    between atoms: _379  and  _380
REMARK  138  A    between atoms: _379  and  _382
REMARK  139  A    between atoms: _384  and  _386
REMARK  140  A    between atoms: _386  and  _387
REMARK  141  A    between atoms: _386  and  _389
REMARK  142  A    between atoms: _392  and  _394
REMARK  143  A    between atoms: _394  and  _395
REMARK  144  A    between atoms: _394  and  _397
REMARK  145  A    between atoms: _397  and  _398
REMARK  146  A    between atoms: _408  and  _410
REMARK  147  A    between atoms: _410  and  _411
REMARK  148  A    between atoms: _410  and  _413
REMARK  149  A    between atoms: _413  and  _414
REMARK  150  A    between atoms: _419  and  _421
REMARK  151  A    between atoms: _421  and  _422
REMARK  152  A    between atoms: _421  and  _424
REMARK  153  A    between atoms: _424  and  _425
REMARK  154  A    between atoms: _425  and  _426
REMARK  155  A    between atoms: _426  and  _427
REMARK                            x       y       z     vdW  Elec       q    Type
REMARK                         _______ _______ _______ _____ _____    ______ ____
ROOT
ATOM      1  CB  ASN A   1      18.534   2.766   5.258  0.00  0.00    +0.110 C 
ENDROOT
BRANCH   1   2
ATOM      2  CG  ASN A   1      18.152   1.905   6.439  0.00  0.00    +0.221 C 
ATOM      3  ND2 ASN A   1      17.409   2.487   7.363  0.00  0.00    -0.329 N 
ATOM      4 HD21 ASN A   1      17.109   1.951   8.203  0.00  0.00    +0.145 HD
ATOM      5 HD22 ASN A   1      17.124   3.481   7.251  0.00  0.00    +0.145 HD
ATOM      6  OD1 ASN A   1      18.520   0.733   6.517  0.00  0.00    -0.275 OA
ENDBRANCH   1   2
BRANCH   1   7
ATOM      7  CA  ASN A   1      18.900   1.931   4.028  0.00  0.00    +0.142 C 
BRANCH   7   8
ATOM      8  N   ASN A   1      17.769   1.117   3.580  0.00  0.00    -0.239 NA
ATOM      9  H   ASN A   1      17.183   0.619   4.280  0.00  0.00    +0.142 HD
ENDBRANCH   7   8
BRANCH   7  10
ATOM     10  C   ASN A   1      20.158   1.110   4.280  0.00  0.00    +0.225 C 
ATOM     11  O   ASN A   1      21.137   1.617   4.844  0.00  0.00    -0.287 OA
ENDBRANCH   7  10
ENDBRANCH   1   7
TORSDOF 4
REMARK  Name = ../refined-set-2016/5byi/5byi_pocket.pdb
REMARK  155 active torsions:
REMARK  status: ('A' for Active; 'I' for Inactive)
REMARK    1  A    between atoms: _1  and  _3
REMARK    2  A    between atoms: _3  and  _4
REMARK    3  A    between atoms: _3  and  _6
REMARK    4  A    between atoms: _6  and  _7
REMARK    5  A    between atoms: _17  and  _19
REMARK    6  A    between atoms: _19  and  _20
REMARK    7  A    between atoms: _19  and  _22
REMARK    8  A    between atoms: _22  and  _23
REMARK    9  A    between atoms: _28  and  _29
REMARK   10  A    between atoms: _31  and  _33
REMARK   11  A    between atoms: _33  and  _34
REMARK   12  A    between atoms: _33  and  _36
REMARK   13  A    between atoms: _36  and  _37
REMARK   14  A    between atoms: _43  and  _45
REMARK   15  A    between atoms: _45  and  _46
REMARK   16  A    between atoms: _45  and  _48
REMARK   17  A    between atoms: _48  and  _49
REMARK   18  A    between atoms: _52  and  _53
REMARK   19  A    between atoms: _58  and  _60
REMARK   20  A    between atoms: _60  and  _61
REMARK   21  A    between atoms: _60  and  _63
REMARK   22  A    between atoms: _63  and  _64
REMARK   23  A    between atoms: _69  and  _71
REMARK   24  A    between atoms: _71  and  _72
REMARK   25  A    between atoms: _71  and  _74
REMARK   26  A    between atoms: _74  and  _75
REMARK   27  A    between atoms: _80  and  _82
REMARK   28  A    between atoms: _82  and  _83
REMARK   29  A    between atoms: _86  and  _88
REMARK   30  A    between atoms: _88  and  _89
REMARK   31  A    between atoms: _88  and  _91
REMARK   32  A    between atoms: _91  and  _92
REMARK   33  A    between atoms: _97  and  _99
REMARK   34  A    between atoms: _99  and  _100
REMARK   35  A    between atoms: _99  and  _102
REMARK   36  A    between atoms: _102  and  _103
REMARK   37  A    between atoms: _106  and  _108
REMARK   38  A    between atoms: _108  and  _109
REMARK   39  A    between atoms: _108  and  _111
REMARK   40  A    between atoms: _111  and  _112
REMARK   41  A    between atoms: _112  and  _113
REMARK   42  A    between atoms: _118  and  _120
REMARK   43  A    between atoms: _120  and  _121
REMARK   44  A    between atoms: _120  and  _123
REMARK   45  A    between atoms: _123  and  _124
REMARK   46  A    between atoms: _130  and  _132
REMARK   47  A    between atoms: _143  and  _146
REMARK   48  A    between atoms: _146  and  _147
REMARK   49  A    between atoms: _155  and  _156
REMARK   50  A    between atoms: _164  and  _166
REMARK   51  A    between atoms: _166  and  _167
REMARK   52  A    between atoms: _166  and  _169
REMARK   53  A    between atoms: _169  and  _170
REMARK   54  A    between atoms: _170  and  _171
REMARK   55  A    between atoms: _174  and  _176
REMARK   56  A    between atoms: _176  and  _177
REMARK   57  A    between atoms: _176  and  _179
REMARK   58  A    between atoms: _179  and  _180
REMARK   59  A    between atoms: _185  and  _187
REMARK   60  A    between atoms: _187  and  _188
REMARK   61  A    between atoms: _187  and  _190
REMARK   62  A    between atoms: _190  and  _191
REMARK   63  A    between atoms: _191  and  _192
REMARK   64  A    between atoms: _195  and  _197
REMARK   65  A    between atoms: _197  and  _198
REMARK   66  A    between atoms: _197  and  _200
REMARK   67  A    between atoms: _200  and  _201
REMARK   68  A    between atoms: _204  and  _206
REMARK   69  A    between atoms: _206  and  _207
REMARK   70  A    between atoms: _206  and  _209
REMARK   71  A    between atoms: _209  and  _210
REMARK   72  A    between atoms: _211  and  ZN_436
REMARK   73  A    between atoms: _215  and  _217
REMARK   74  A    between atoms: _217  and  _218
REMARK   75  A    between atoms: _217  and  _220
REMARK   76  A    between atoms: _220  and  _221
REMARK   77  A    between atoms: _224  and  _226
REMARK   78  A    between atoms: _226  and  _227
REMARK   79  A    between atoms: _226  and  _229
REMARK   80  A    between atoms: _232  and  _234
REMARK   81  A    between atoms: _234  and  _235
REMARK   82  A    between atoms: _234  and  _237
REMARK   83  A    between atoms: _237  and  _238
REMARK   84  A    between atoms: _243  and  _245
REMARK   85  A    between atoms: _245  and  _246
REMARK   86  A    between atoms: _245  and  _248
REMARK   87  A    between atoms: _248  and  _249
REMARK   88  A    between atoms: _255  and  _257
REMARK   89  A    between atoms: _257  and  _258
REMARK   90  A    between atoms: _260  and  _262
REMARK   91  A    between atoms: _262  and  _263
REMARK   92  A    between atoms: _262  and  _265
REMARK   93  A    between atoms: _268  and  _270
REMARK   94  A    between atoms: _270  and  _271
REMARK   95  A    between atoms: _270  and  _273
REMARK   96  A    between atoms: _273  and  _274
REMARK   97  A    between atoms: _277  and  _279
REMARK   98  A    between atoms: _279  and  _280
REMARK   99  A    between atoms: _283  and  _285
REMARK  100  A    between atoms: _285  and  _286
REMARK  101  A    between atoms: _285  and  _288
REMARK  102  A    between atoms: _291  and  _293
REMARK  103  A    between atoms: _293  and  _294
REMARK  104  A    between atoms: _293  and  _296
REMARK  105  A    between atoms: _296  and  _297
REMARK  106  A    between atoms: _300  and  _302
REMARK  107  A    between atoms: _302  and  _303
REMARK  108  A    between atoms: _305  and  _307
REMARK  109  A    between atoms: _307  and  _308
REMARK  110  A    between atoms: _310  and  _312
REMARK  111  A    between atoms: _312  and  _313
REMARK  112  A    between atoms: _312  and  _315
REMARK  113  A    between atoms: _315  and  _316
REMARK  114  A    between atoms: _318  and  _320
REMARK  115  A    between atoms: _320  and  _321
REMARK  116  A    between atoms: _320  and  _323
REMARK  117  A    between atoms: _323  and  _324
REMARK  118  A    between atoms: _327  and  _329
REMARK  119  A    between atoms: _329  and  _330
REMARK  120  A    between atoms: _329  and  _332
REMARK  121  A    between atoms: _332  and  _333
REMARK  122  A    between atoms: _336  and  _338
REMARK  123  A    between atoms: _338  and  _339
REMARK  124  A    between atoms: _338  and  _341
REMARK  125  A    between atoms: _341  and  _342
REMARK  126  A    between atoms: _346  and  _347
REMARK  127  A    between atoms: _353  and  _354
REMARK  128  A    between atoms: _359  and  _361
REMARK  129  A    between atoms: _361  and  _362
REMARK  130  A    between atoms: _361  and  _364
REMARK  131  A    between atoms: _364  and  _365
REMARK  132  A    between atoms: _368  and  _370
REMARK  133  A    between atoms: _370  and  _371
REMARK  134  A    between atoms: _370  and  _373
REMARK  135  A    between atoms: _373  and  _374
REMARK  136  A    between atoms: _377  and  _379
REMARK  137  A    between atoms: _379  and  _380
REMARK  138  A    between atoms: _379  and  _382
REMARK  139  A    between atoms: _384  and  _386
REMARK  140  A    between atoms: _386  and  _387
REMARK  141  A    between atoms: _386  and  _389
REMARK  142  A    between atoms: _392  and  _394
REMARK  143  A    between atoms: _394  and  _395
REMARK  144  A    between atoms: _394  and  _397
REMARK  145  A    between atoms: _397  and  _398
REMARK  146  A    between atoms: _408  and  _410
REMARK  147  A    between atoms: _410  and  _411
REMARK  148  A    between atoms: _410  and  _413
REMARK  149  A    between atoms: _413  and  _414
REMARK  150  A    between atoms: _419  and  _421
REMARK  151  A    between atoms: _421  and  _422
REMARK  152  A    between atoms: _421  and  _424
REMARK  153  A    between atoms: _424  and  _425
REMARK  154  A    between atoms: _425  and  _426
REMARK  155  A    between atoms: _426  and  _427
REMARK                            x       y       z     vdW  Elec       q    Type
REMARK                         _______ _______ _______ _____ _____    ______ ____
ROOT
ATOM      1  CA  HIS A   1      20.304  -2.137   7.594  0.00  0.00    +0.151 C 
ENDROOT
BRANCH   1   2
ATOM      2  C   HIS A   1      18.909  -2.680   7.847  0.00  0.00    +0.239 C 
ATOM      3  O   HIS A   1      18.749  -3.668   8.548  0.00  0.00    -0.274 OA
ATOM      4  N   ALA A   2      17.911  -2.029   7.279  0.00  0.00    -0.298 N 
ATOM      5  H   ALA A   2      18.118  -1.132   6.795  0.00  0.00    +0.150 HD
BRANCH   4   6
ATOM      6  CA  ALA A   2      16.531  -2.505   7.297  0.00  0.00    +0.137 C 
ATOM      7  CB  ALA A   2      15.865  -2.238   8.642  0.00  0.00    +0.030 C 
BRANCH   6   8
ATOM      8  C   ALA A   2      15.824  -1.759   6.165  0.00  0.00    +0.227 C 
ATOM      9  O   ALA A   2      16.483  -1.129   5.337  0.00  0.00    -0.286 OA
ENDBRANCH   6   8
ENDBRANCH   4   6
ENDBRANCH   1   2
BRANCH   1  10
ATOM     10  N   HIS A   1      20.442  -1.389   6.330  0.00  0.00    -0.238 NA
ATOM     11  H   HIS A   1      19.828  -0.568   6.156  0.00  0.00    +0.142 HD
ENDBRANCH   1  10
BRANCH   1  12
ATOM     12  CB  HIS A   1      20.867  -1.399   8.839  0.00  0.00    +0.074 C 
BRANCH  12  13
ATOM     13  CG  HIS A   1      20.332  -0.017   9.089  0.00  0.00    +0.082 A 
ATOM     14  CD2 HIS A   1      19.306   0.416   9.861  0.00  0.00    +0.115 A 
ATOM     15  NE2 HIS A   1      19.289   1.789   9.789  0.00  0.00    -0.221 NA
ATOM     16  CE1 HIS A   1      20.286   2.191   9.024  0.00  0.00    +0.199 A 
ATOM     17  ND1 HIS A   1      20.946   1.122   8.605  0.00  0.00    -0.227 NA
ENDBRANCH  12  13
ENDBRANCH   1  12
TORSDOF 6
REMARK  Name = ../refined-set-2016/5byi/5byi_pocket.pdb
REMARK  155 active torsions:
REMARK  status: ('A' for Active; 'I' for Inactive)
REMARK    1  A    between atoms: _1  and  _3
REMARK    2  A    between atoms: _3  and  _4
REMARK    3  A    between atoms: _3  and  _6
REMARK    4  A    between atoms: _6  and  _7
REMARK    5  A    between atoms: _17  and  _19
REMARK    6  A    between atoms: _19  and  _20
REMARK    7  A    between atoms: _19  and  _22
REMARK    8  A    between atoms: _22  and  _23
REMARK    9  A    between atoms: _28  and  _29
REMARK   10  A    between atoms: _31  and  _33
REMARK   11  A    between atoms: _33  and  _34
REMARK   12  A    between atoms: _33  and  _36
REMARK   13  A    between atoms: _36  and  _37
REMARK   14  A    between atoms: _43  and  _45
REMARK   15  A    between atoms: _45  and  _46
REMARK   16  A    between atoms: _45  and  _48
REMARK   17  A    between atoms: _48  and  _49
REMARK   18  A    between atoms: _52  and  _53
REMARK   19  A    between atoms: _58  and  _60
REMARK   20  A    between atoms: _60  and  _61
REMARK   21  A    between atoms: _60  and  _63
REMARK   22  A    between atoms: _63  and  _64
REMARK   23  A    between atoms: _69  and  _71
REMARK   24  A    between atoms: _71  and  _72
REMARK   25  A    between atoms: _71  and  _74
REMARK   26  A    between atoms: _74  and  _75
REMARK   27  A    between atoms: _80  and  _82
REMARK   28  A    between atoms: _82  and  _83
REMARK   29  A    between atoms: _86  and  _88
REMARK   30  A    between atoms: _88  and  _89
REMARK   31  A    between atoms: _88  and  _91
REMARK   32  A    between atoms: _91  and  _92
REMARK   33  A    between atoms: _97  and  _99
REMARK   34  A    between atoms: _99  and  _100
REMARK   35  A    between atoms: _99  and  _102
REMARK   36  A    between atoms: _102  and  _103
REMARK   37  A    between atoms: _106  and  _108
REMARK   38  A    between atoms: _108  and  _109
REMARK   39  A    between atoms: _108  and  _111
REMARK   40  A    between atoms: _111  and  _112
REMARK   41  A    between atoms: _112  and  _113
REMARK   42  A    between atoms: _118  and  _120
REMARK   43  A    between atoms: _120  and  _121
REMARK   44  A    between atoms: _120  and  _123
REMARK   45  A    between atoms: _123  and  _124
REMARK   46  A    between atoms: _130  and  _132
REMARK   47  A    between atoms: _143  and  _146
REMARK   48  A    between atoms: _146  and  _147
REMARK   49  A    between atoms: _155  and  _156
REMARK   50  A    between atoms: _164  and  _166
REMARK   51  A    between atoms: _166  and  _167
REMARK   52  A    between atoms: _166  and  _169
REMARK   53  A    between atoms: _169  and  _170
REMARK   54  A    between atoms: _170  and  _171
REMARK   55  A    between atoms: _174  and  _176
REMARK   56  A    between atoms: _176  and  _177
REMARK   57  A    between atoms: _176  and  _179
REMARK   58  A    between atoms: _179  and  _180
REMARK   59  A    between atoms: _185  and  _187
REMARK   60  A    between atoms: _187  and  _188
REMARK   61  A    between atoms: _187  and  _190
REMARK   62  A    between atoms: _190  and  _191
REMARK   63  A    between atoms: _191  and  _192
REMARK   64  A    between atoms: _195  and  _197
REMARK   65  A    between atoms: _197  and  _198
REMARK   66  A    between atoms: _197  and  _200
REMARK   67  A    between atoms: _200  and  _201
REMARK   68  A    between atoms: _204  and  _206
REMARK   69  A    between atoms: _206  and  _207
REMARK   70  A    between atoms: _206  and  _209
REMARK   71  A    between atoms: _209  and  _210
REMARK   72  A    between atoms: _211  and  ZN_436
REMARK   73  A    between atoms: _215  and  _217
REMARK   74  A    between atoms: _217  and  _218
REMARK   75  A    between atoms: _217  and  _220
REMARK   76  A    between atoms: _220  and  _221
REMARK   77  A    between atoms: _224  and  _226
REMARK   78  A    between atoms: _226  and  _227
REMARK   79  A    between atoms: _226  and  _229
REMARK   80  A    between atoms: _232  and  _234
REMARK   81  A    between atoms: _234  and  _235
REMARK   82  A    between atoms: _234  and  _237
REMARK   83  A    between atoms: _237  and  _238
REMARK   84  A    between atoms: _243  and  _245
REMARK   85  A    between atoms: _245  and  _246
REMARK   86  A    between atoms: _245  and  _248
REMARK   87  A    between atoms: _248  and  _249
REMARK   88  A    between atoms: _255  and  _257
REMARK   89  A    between atoms: _257  and  _258
REMARK   90  A    between atoms: _260  and  _262
REMARK   91  A    between atoms: _262  and  _263
REMARK   92  A    between atoms: _262  and  _265
REMARK   93  A    between atoms: _268  and  _270
REMARK   94  A    between atoms: _270  and  _271
REMARK   95  A    between atoms: _270  and  _273
REMARK   96  A    between atoms: _273  and  _274
REMARK   97  A    between atoms: _277  and  _279
REMARK   98  A    between atoms: _279  and  _280
REMARK   99  A    between atoms: _283  and  _285
REMARK  100  A    between atoms: _285  and  _286
REMARK  101  A    between atoms: _285  and  _288
REMARK  102  A    between atoms: _291  and  _293
REMARK  103  A    between atoms: _293  and  _294
REMARK  104  A    between atoms: _293  and  _296
REMARK  105  A    between atoms: _296  and  _297
REMARK  106  A    between atoms: _300  and  _302
REMARK  107  A    between atoms: _302  and  _303
REMARK  108  A    between atoms: _305  and  _307
REMARK  109  A    between atoms: _307  and  _308
REMARK  110  A    between atoms: _310  and  _312
REMARK  111  A    between atoms: _312  and  _313
REMARK  112  A    between atoms: _312  and  _315
REMARK  113  A    between atoms: _315  and  _316
REMARK  114  A    between atoms: _318  and  _320
REMARK  115  A    between atoms: _320  and  _321
REMARK  116  A    between atoms: _320  and  _323
REMARK  117  A    between atoms: _323  and  _324
REMARK  118  A    between atoms: _327  and  _329
REMARK  119  A    between atoms: _329  and  _330
REMARK  120  A    between atoms: _329  and  _332
REMARK  121  A    between atoms: _332  and  _333
REMARK  122  A    between atoms: _336  and  _338
REMARK  123  A    between atoms: _338  and  _339
REMARK  124  A    between atoms: _338  and  _341
REMARK  125  A    between atoms: _341  and  _342
REMARK  126  A    between atoms: _346  and  _347
REMARK  127  A    between atoms: _353  and  _354
REMARK  128  A    between atoms: _359  and  _361
REMARK  129  A    between atoms: _361  and  _362
REMARK  130  A    between atoms: _361  and  _364
REMARK  131  A    between atoms: _364  and  _365
REMARK  132  A    between atoms: _368  and  _370
REMARK  133  A    between atoms: _370  and  _371
REMARK  134  A    between atoms: _370  and  _373
REMARK  135  A    between atoms: _373  and  _374
REMARK  136  A    between atoms: _377  and  _379
REMARK  137  A    between atoms: _379  and  _380
REMARK  138  A    between atoms: _379  and  _382
REMARK  139  A    between atoms: _384  and  _386
REMARK  140  A    between atoms: _386  and  _387
REMARK  141  A    between atoms: _386  and  _389
REMARK  142  A    between atoms: _392  and  _394
REMARK  143  A    between atoms: _394  and  _395
REMARK  144  A    between atoms: _394  and  _397
REMARK  145  A    between atoms: _397  and  _398
REMARK  146  A    between atoms: _408  and  _410
REMARK  147  A    between atoms: _410  and  _411
REMARK  148  A    between atoms: _410  and  _413
REMARK  149  A    between atoms: _413  and  _414
REMARK  150  A    between atoms: _419  and  _421
REMARK  151  A    between atoms: _421  and  _422
REMARK  152  A    between atoms: _421  and  _424
REMARK  153  A    between atoms: _424  and  _425
REMARK  154  A    between atoms: _425  and  _426
REMARK  155  A    between atoms: _426  and  _427
REMARK                            x       y       z     vdW  Elec       q    Type
REMARK                         _______ _______ _______ _____ _____    ______ ____
ROOT
ATOM      1  CB  ASN A   1      12.681   3.499   6.903  0.00  0.00    +0.110 C 
ENDROOT
BRANCH   1   2
ATOM      2  CG  ASN A   1      13.726   3.328   7.965  0.00  0.00    +0.221 C 
ATOM      3  ND2 ASN A   1      13.844   2.143   8.501  0.00  0.00    -0.329 N 
ATOM      4 HD21 ASN A   1      14.564   1.972   9.232  0.00  0.00    +0.145 HD
ATOM      5 HD22 ASN A   1      13.218   1.370   8.197  0.00  0.00    +0.145 HD
ATOM      6  OD1 ASN A   1      14.441   4.282   8.286  0.00  0.00    -0.275 OA
ENDBRANCH   1   2
BRANCH   1   7
ATOM      7  CA  ASN A   1      11.935   2.206   6.548  0.00  0.00    +0.142 C 
BRANCH   7   8
ATOM      8  N   ASN A   1      12.766   1.259   5.793  0.00  0.00    -0.239 NA
ATOM      9  H   ASN A   1      13.301   1.598   4.968  0.00  0.00    +0.142 HD
ENDBRANCH   7   8
BRANCH   7  10
ATOM     10  C   ASN A   1      10.716   2.629   5.723  0.00  0.00    +0.225 C 
ATOM     11  O   ASN A   1      10.861   3.058   4.562  0.00  0.00    -0.287 OA
ENDBRANCH   7  10
ENDBRANCH   1   7
TORSDOF 4
REMARK  Name = ../refined-set-2016/5byi/5byi_pocket.pdb
REMARK  155 active torsions:
REMARK  status: ('A' for Active; 'I' for Inactive)
REMARK    1  A    between atoms: _1  and  _3
REMARK    2  A    between atoms: _3  and  _4
REMARK    3  A    between atoms: _3  and  _6
REMARK    4  A    between atoms: _6  and  _7
REMARK    5  A    between atoms: _17  and  _19
REMARK    6  A    between atoms: _19  and  _20
REMARK    7  A    between atoms: _19  and  _22
REMARK    8  A    between atoms: _22  and  _23
REMARK    9  A    between atoms: _28  and  _29
REMARK   10  A    between atoms: _31  and  _33
REMARK   11  A    between atoms: _33  and  _34
REMARK   12  A    between atoms: _33  and  _36
REMARK   13  A    between atoms: _36  and  _37
REMARK   14  A    between atoms: _43  and  _45
REMARK   15  A    between atoms: _45  and  _46
REMARK   16  A    between atoms: _45  and  _48
REMARK   17  A    between atoms: _48  and  _49
REMARK   18  A    between atoms: _52  and  _53
REMARK   19  A    between atoms: _58  and  _60
REMARK   20  A    between atoms: _60  and  _61
REMARK   21  A    between atoms: _60  and  _63
REMARK   22  A    between atoms: _63  and  _64
REMARK   23  A    between atoms: _69  and  _71
REMARK   24  A    between atoms: _71  and  _72
REMARK   25  A    between atoms: _71  and  _74
REMARK   26  A    between atoms: _74  and  _75
REMARK   27  A    between atoms: _80  and  _82
REMARK   28  A    between atoms: _82  and  _83
REMARK   29  A    between atoms: _86  and  _88
REMARK   30  A    between atoms: _88  and  _89
REMARK   31  A    between atoms: _88  and  _91
REMARK   32  A    between atoms: _91  and  _92
REMARK   33  A    between atoms: _97  and  _99
REMARK   34  A    between atoms: _99  and  _100
REMARK   35  A    between atoms: _99  and  _102
REMARK   36  A    between atoms: _102  and  _103
REMARK   37  A    between atoms: _106  and  _108
REMARK   38  A    between atoms: _108  and  _109
REMARK   39  A    between atoms: _108  and  _111
REMARK   40  A    between atoms: _111  and  _112
REMARK   41  A    between atoms: _112  and  _113
REMARK   42  A    between atoms: _118  and  _120
REMARK   43  A    between atoms: _120  and  _121
REMARK   44  A    between atoms: _120  and  _123
REMARK   45  A    between atoms: _123  and  _124
REMARK   46  A    between atoms: _130  and  _132
REMARK   47  A    between atoms: _143  and  _146
REMARK   48  A    between atoms: _146  and  _147
REMARK   49  A    between atoms: _155  and  _156
REMARK   50  A    between atoms: _164  and  _166
REMARK   51  A    between atoms: _166  and  _167
REMARK   52  A    between atoms: _166  and  _169
REMARK   53  A    between atoms: _169  and  _170
REMARK   54  A    between atoms: _170  and  _171
REMARK   55  A    between atoms: _174  and  _176
REMARK   56  A    between atoms: _176  and  _177
REMARK   57  A    between atoms: _176  and  _179
REMARK   58  A    between atoms: _179  and  _180
REMARK   59  A    between atoms: _185  and  _187
REMARK   60  A    between atoms: _187  and  _188
REMARK   61  A    between atoms: _187  and  _190
REMARK   62  A    between atoms: _190  and  _191
REMARK   63  A    between atoms: _191  and  _192
REMARK   64  A    between atoms: _195  and  _197
REMARK   65  A    between atoms: _197  and  _198
REMARK   66  A    between atoms: _197  and  _200
REMARK   67  A    between atoms: _200  and  _201
REMARK   68  A    between atoms: _204  and  _206
REMARK   69  A    between atoms: _206  and  _207
REMARK   70  A    between atoms: _206  and  _209
REMARK   71  A    between atoms: _209  and  _210
REMARK   72  A    between atoms: _211  and  ZN_436
REMARK   73  A    between atoms: _215  and  _217
REMARK   74  A    between atoms: _217  and  _218
REMARK   75  A    between atoms: _217  and  _220
REMARK   76  A    between atoms: _220  and  _221
REMARK   77  A    between atoms: _224  and  _226
REMARK   78  A    between atoms: _226  and  _227
REMARK   79  A    between atoms: _226  and  _229
REMARK   80  A    between atoms: _232  and  _234
REMARK   81  A    between atoms: _234  and  _235
REMARK   82  A    between atoms: _234  and  _237
REMARK   83  A    between atoms: _237  and  _238
REMARK   84  A    between atoms: _243  and  _245
REMARK   85  A    between atoms: _245  and  _246
REMARK   86  A    between atoms: _245  and  _248
REMARK   87  A    between atoms: _248  and  _249
REMARK   88  A    between atoms: _255  and  _257
REMARK   89  A    between atoms: _257  and  _258
REMARK   90  A    between atoms: _260  and  _262
REMARK   91  A    between atoms: _262  and  _263
REMARK   92  A    between atoms: _262  and  _265
REMARK   93  A    between atoms: _268  and  _270
REMARK   94  A    between atoms: _270  and  _271
REMARK   95  A    between atoms: _270  and  _273
REMARK   96  A    between atoms: _273  and  _274
REMARK   97  A    between atoms: _277  and  _279
REMARK   98  A    between atoms: _279  and  _280
REMARK   99  A    between atoms: _283  and  _285
REMARK  100  A    between atoms: _285  and  _286
REMARK  101  A    between atoms: _285  and  _288
REMARK  102  A    between atoms: _291  and  _293
REMARK  103  A    between atoms: _293  and  _294
REMARK  104  A    between atoms: _293  and  _296
REMARK  105  A    between atoms: _296  and  _297
REMARK  106  A    between atoms: _300  and  _302
REMARK  107  A    between atoms: _302  and  _303
REMARK  108  A    between atoms: _305  and  _307
REMARK  109  A    between atoms: _307  and  _308
REMARK  110  A    between atoms: _310  and  _312
REMARK  111  A    between atoms: _312  and  _313
REMARK  112  A    between atoms: _312  and  _315
REMARK  113  A    between atoms: _315  and  _316
REMARK  114  A    between atoms: _318  and  _320
REMARK  115  A    between atoms: _320  and  _321
REMARK  116  A    between atoms: _320  and  _323
REMARK  117  A    between atoms: _323  and  _324
REMARK  118  A    between atoms: _327  and  _329
REMARK  119  A    between atoms: _329  and  _330
REMARK  120  A    between atoms: _329  and  _332
REMARK  121  A    between atoms: _332  and  _333
REMARK  122  A    between atoms: _336  and  _338
REMARK  123  A    between atoms: _338  and  _339
REMARK  124  A    between atoms: _338  and  _341
REMARK  125  A    between atoms: _341  and  _342
REMARK  126  A    between atoms: _346  and  _347
REMARK  127  A    between atoms: _353  and  _354
REMARK  128  A    between atoms: _359  and  _361
REMARK  129  A    between atoms: _361  and  _362
REMARK  130  A    between atoms: _361  and  _364
REMARK  131  A    between atoms: _364  and  _365
REMARK  132  A    between atoms: _368  and  _370
REMARK  133  A    between atoms: _370  and  _371
REMARK  134  A    between atoms: _370  and  _373
REMARK  135  A    between atoms: _373  and  _374
REMARK  136  A    between atoms: _377  and  _379
REMARK  137  A    between atoms: _379  and  _380
REMARK  138  A    between atoms: _379  and  _382
REMARK  139  A    between atoms: _384  and  _386
REMARK  140  A    between atoms: _386  and  _387
REMARK  141  A    between atoms: _386  and  _389
REMARK  142  A    between atoms: _392  and  _394
REMARK  143  A    between atoms: _394  and  _395
REMARK  144  A    between atoms: _394  and  _397
REMARK  145  A    between atoms: _397  and  _398
REMARK  146  A    between atoms: _408  and  _410
REMARK  147  A    between atoms: _410  and  _411
REMARK  148  A    between atoms: _410  and  _413
REMARK  149  A    between atoms: _413  and  _414
REMARK  150  A    between atoms: _419  and  _421
REMARK  151  A    between atoms: _421  and  _422
REMARK  152  A    between atoms: _421  and  _424
REMARK  153  A    between atoms: _424  and  _425
REMARK  154  A    between atoms: _425  and  _426
REMARK  155  A    between atoms: _426  and  _427
REMARK                            x       y       z     vdW  Elec       q    Type
REMARK                         _______ _______ _______ _____ _____    ______ ____
ROOT
ATOM      1  C   UNK A   4      10.826  -0.612  10.223  0.00  0.00    +0.000 C 
ATOM      2  C   UNK A   4      10.744  -1.876  11.066  0.00  0.00    +0.000 C 
ATOM      3  O   UNK A   4      10.110  -1.895  12.129  0.00  0.00    +0.000 OA
ATOM      4  N   VAL A   5      11.427  -2.923  10.617  0.00  0.00    +0.000 N 
ATOM      5  CA  VAL A   5      11.439  -4.199  11.293  0.00  0.00    +0.000 C 
ATOM      6  C   VAL A   5      12.882  -4.660  11.490  0.00  0.00    +0.000 C 
ATOM      7  N   UNK A   6      13.031  -5.613  12.410  0.00  0.00    +0.000 N 
ATOM      8  H   UNK A   6      12.235  -5.792  13.054  0.00  0.00    +0.000 HD
ATOM      9  C   UNK A   6      14.237  -6.426  12.577  0.00  0.00    +0.000 C 
ATOM     10  C   UNK A   6      14.920  -6.180  13.939  0.00  0.00    +0.000 C 
ATOM     11  C   UNK A   6      15.207  -4.737  14.193  0.00  0.00    +0.000 A 
ATOM     12  C   UNK A   6      14.395  -3.730  14.607  0.00  0.00    +0.000 A 
ATOM     13  N   UNK A   6      15.148  -2.583  14.648  0.00  0.00    +0.000 N 
ATOM     14 ZN   UNK A   6      14.361  -0.795  15.273  0.00  0.00    +0.000 Zn
ATOM     15  N   UNK A   4      13.637   0.043  13.590  0.00  0.00    +0.000 N 
ATOM     16  C   UNK A   4      13.158   1.264  13.403  0.00  0.00    +0.000 A 
ATOM     17  N   UNK A   4      12.648   1.352  12.180  0.00  0.00    +0.000 NA
ATOM     18  C   UNK A   4      12.825   0.149  11.536  0.00  0.00    +0.000 A 
ATOM     19  C   UNK A   4      13.438  -0.673  12.433  0.00  0.00    +0.000 A 
ATOM     20  C   UNK A   6      16.377  -2.876  14.256  0.00  0.00    +0.000 A 
ATOM     21  N   UNK A   6      16.441  -4.169  13.971  0.00  0.00    +0.000 NA
ATOM     22  O   VAL A   5      13.810  -4.199  10.820  0.00  0.00    +0.000 OA
ATOM     23  H   VAL A   5      11.977  -2.819   9.740  0.00  0.00    +0.000 HD
ATOM     24  C   UNK A   4      12.280  -0.128  10.176  0.00  0.00    +0.000 C 
ENDROOT
BRANCH  14  25
ATOM     25  N   UNK A   6      12.893  -1.497  16.521  0.00  0.00    +0.000 N 
ATOM     26  C   UNK A   6      13.181  -2.423  17.418  0.00  0.00    +0.000 A 
ATOM     27  N   UNK A   6      12.062  -2.783  18.022  0.00  0.00    +0.000 NA
ATOM     28  C   UNK A   6      11.014  -2.081  17.486  0.00  0.00    +0.000 A 
ATOM     29  C   UNK A   6      11.534  -1.262  16.545  0.00  0.00    +0.000 A 
BRANCH  29  30
ATOM     30  C   UNK A   6      10.853  -0.285  15.654  0.00  0.00    +0.000 C 
BRANCH  30  31
ATOM     31  C   UNK A   6       9.353  -0.553  15.536  0.00  0.00    +0.000 C 
BRANCH  31  32
ATOM     32  C   UNK A   6       8.681   0.612  14.843  0.00  0.00    +0.000 C 
ATOM     33  N   UNK A   4       7.683   1.198  15.516  0.00  0.00    +0.000 N 
ATOM     34  H   UNK A   4       7.361   0.756  16.401  0.00  0.00    +0.000 HD
ATOM     35  O   UNK A   6       9.073   0.985  13.728  0.00  0.00    +0.000 OA
BRANCH  33  36
ATOM     36  C   UNK A   4       7.017   2.432  15.074  0.00  0.00    +0.000 C 
BRANCH  36  37
ATOM     37  C   UNK A   4       7.662   3.564  15.867  0.00  0.00    +0.000 C 
ATOM     38  O   UNK A   4       7.558   3.607  17.099  0.00  0.00    +0.000 OA
ATOM     39  N   VAL A   5       8.346   4.458  15.164  0.00  0.00    +0.000 N 
ATOM     40  H   VAL A   5       8.254   4.443  14.128  0.00  0.00    +0.000 HD
BRANCH  39  41
ATOM     41  CA  VAL A   5       9.217   5.457  15.763  0.00  0.00    +0.000 C 
BRANCH  41  42
ATOM     42  C   VAL A   5       8.534   6.814  15.795  0.00  0.00    +0.000 C 
ATOM     43  N   UNK A   6       8.481   7.430  16.985  0.00  0.00    +0.000 N 
ATOM     44  H   UNK A   6       8.950   6.985  17.800  0.00  0.00    +0.000 HD
ATOM     45  O   VAL A   5       8.061   7.281  14.753  0.00  0.00    +0.000 OA
BRANCH  43  46
ATOM     46  C   UNK A   6       7.794   8.696  17.181  0.00  0.00    +0.000 C 
BRANCH  46  47
ATOM     47  C   UNK A   6       8.691   9.691  17.915  0.00  0.00    +0.000 C 
ATOM     48  O   UNK A   6       9.454   9.290  18.791  0.00  0.00    +0.000 OA
ENDBRANCH  46  47
BRANCH  46  49
ATOM     49  C   UNK A   6       6.522   8.515  18.030  0.00  0.00    +0.000 C 
BRANCH  49  50
ATOM     50  C   UNK A   6       5.642   7.367  17.623  0.00  0.00    +0.000 A 
ATOM     51  N   UNK A   6       5.965   6.055  17.887  0.00  0.00    +0.000 NA
ATOM     52  C   UNK A   6       4.995   5.270  17.444  0.00  0.00    +0.000 A 
ATOM     53  N   UNK A   6       4.041   6.019  16.924  0.00  0.00    +0.000 NA
ATOM     54  C   UNK A   6       4.420   7.334  17.026  0.00  0.00    +0.000 A 
ENDBRANCH  49  50
ENDBRANCH  46  49
ENDBRANCH  43  46
ENDBRANCH  41  42
BRANCH  41  55
ATOM     55  CB  VAL A   5      10.536   5.543  14.972  0.00  0.00    +0.000 C 
ATOM     56  CG2 VAL A   5      11.488   6.574  15.591  0.00  0.00    +0.000 C 
ATOM     57  CG1 VAL A   5      11.199   4.168  14.830  0.00  0.00    +0.000 C 
ENDBRANCH  41  55
ENDBRANCH  39  41
ENDBRANCH  36  37
BRANCH  36  58
ATOM     58  C   UNK A   4       5.511   2.330  15.319  0.00  0.00    +0.000 C 
BRANCH  58  59
ATOM     59  C   UNK A   4       4.806   1.275  14.444  0.00  0.00    +0.000 C 
ATOM     60  C   UNK A   4       3.864   0.421  15.276  0.00  0.00    +0.000 C 
ATOM     61  C   UNK A   4       4.054   1.932  13.294  0.00  0.00    +0.000 C 
ENDBRANCH  58  59
ENDBRANCH  36  58
ENDBRANCH  33  36
ENDBRANCH  31  32
BRANCH  31  62
ATOM     62  N   UNK A   6       9.113  -1.788  14.781  0.00  0.00    +0.000 N 
ATOM     63  C   LEU A   2       8.477  -2.850  15.269  0.00  0.00    +0.000 C 
ATOM     64  O   LEU A   2       8.066  -2.919  16.443  0.00  0.00    +0.000 OA
ATOM     65  H   UNK A   6       9.462  -1.836  13.803  0.00  0.00    +0.000 HD
BRANCH  63  66
ATOM     66  CA  LEU A   2       8.231  -4.008  14.302  0.00  0.00    +0.000 C 
BRANCH  66  67
ATOM     67  N   LEU A   2       8.613  -5.248  14.955  0.00  0.00    +0.000 N 
ATOM     68  H   LEU A   2       7.904  -5.715  15.556  0.00  0.00    +0.000 HD
ATOM     69  C   GLU A   1       9.804  -5.831  14.841  0.00  0.00    +0.000 C 
ATOM     70  O   GLU A   1      10.718  -5.430  14.104  0.00  0.00    +0.000 OA
BRANCH  69  71
ATOM     71  CA  GLU A   1       9.986  -7.096  15.673  0.00  0.00    +0.000 C 
BRANCH  71  72
ATOM     72  N   GLU A   1      10.491  -8.141  14.814  0.00  0.00    +0.000 NA
ATOM     73  H   GLU A   1      11.120  -7.886  14.026  0.00  0.00    +0.000 HD
ENDBRANCH  71  72
BRANCH  71  74
ATOM     74  CB  GLU A   1      10.948  -6.859  16.857  0.00  0.00    +0.000 C 
BRANCH  74  75
ATOM     75  CG  GLU A   1      10.433  -5.899  17.926  0.00  0.00    +0.000 C 
BRANCH  75  76
ATOM     76  CD  GLU A   1      11.365  -5.827  19.128  0.00  0.00    +0.000 C 
ATOM     77  OE2 GLU A   1      11.427  -4.746  19.759  0.00  0.00    +0.000 OA
ATOM     78  OE1 GLU A   1      12.026  -6.842  19.429  0.00  0.00    +0.000 OA
ENDBRANCH  75  76
ENDBRANCH  74  75
ENDBRANCH  71  74
ENDBRANCH  69  71
ENDBRANCH  66  67
BRANCH  66  79
ATOM     79  CB  LEU A   2       6.744  -4.077  13.971  0.00  0.00    +0.000 C 
BRANCH  79  80
ATOM     80  CG  LEU A   2       6.021  -2.785  13.570  0.00  0.00    +0.000 C 
ATOM     81  CD2 LEU A   2       4.558  -3.111  13.313  0.00  0.00    +0.000 C 
ATOM     82  CD1 LEU A   2       6.626  -2.113  12.348  0.00  0.00    +0.000 C 
ENDBRANCH  79  80
ENDBRANCH  66  79
ENDBRANCH  63  66
ENDBRANCH  31  62
ENDBRANCH  30  31
ENDBRANCH  29  30
ENDBRANCH  14  25
BRANCH   1  84
ATOM     83  C   UNK A   3       9.457   1.403  10.170  0.00  0.00    +0.000 C 
ATOM     84  N   UNK A   4       9.961   0.372  10.831  0.00  0.00    +0.000 N 
ATOM     85  H   UNK A   4       9.722   0.266  11.838  0.00  0.00    +0.000 HD
ATOM     86  O   UNK A   3       9.703   1.637   8.969  0.00  0.00    +0.000 OA
BRANCH  83  87
ATOM     87  C   UNK A   3       8.512   2.266  10.961  0.00  0.00    +0.000 C 
BRANCH  87  90
ATOM     88  C   LEU A   2       8.574   4.687  11.096  0.00  0.00    +0.000 C 
ATOM     89  O   LEU A   2       8.516   4.701  12.337  0.00  0.00    +0.000 OA
ATOM     90  N   UNK A   3       8.394   3.595  10.370  0.00  0.00    +0.000 N 
ATOM     91  H   UNK A   3       8.164   3.686   9.360  0.00  0.00    +0.000 HD
BRANCH  88  92
ATOM     92  CA  LEU A   2       8.861   5.960  10.343  0.00  0.00    +0.000 C 
BRANCH  92  94
ATOM     93  C   GLU A   1       8.353   8.314  10.649  0.00  0.00    +0.000 C 
ATOM     94  N   LEU A   2       8.535   7.103  11.177  0.00  0.00    +0.000 N 
ATOM     95  H   LEU A   2       8.442   6.975  12.205  0.00  0.00    +0.000 HD
ATOM     96  O   GLU A   1       8.429   8.518   9.445  0.00  0.00    +0.000 OA
BRANCH  93  97
ATOM     97  CA  GLU A   1       8.039   9.484  11.584  0.00  0.00    +0.000 C 
BRANCH  97  98
ATOM     98  CB  GLU A   1       9.325  10.197  12.086  0.00  0.00    +0.000 C 
ATOM     99  CG2 GLU A   1      10.069   9.366  13.120  0.00  0.00    +0.000 C 
BRANCH  98 100
ATOM    100  CG1 GLU A   1      10.234  10.589  10.921  0.00  0.00    +0.000 C 
ATOM    101  CD1 GLU A   1      11.322  11.566  11.308  0.00  0.00    +0.000 C 
ENDBRANCH  98 100
ENDBRANCH  97  98
BRANCH  97 102
ATOM    102  N   GLU A   1       7.146   9.124  12.680  0.00  0.00    +0.000 NA
ATOM    103  H   GLU A   1       7.492   8.462  13.404  0.00  0.00    +0.000 HD
ENDBRANCH  97 102
ENDBRANCH  93  97
ENDBRANCH  92  94
BRANCH  92 104
ATOM    104  CB  LEU A   2      10.325   6.002   9.873  0.00  0.00    +0.000 C 
BRANCH 104 105
ATOM    105  CG  LEU A   2      11.377   6.099  10.976  0.00  0.00    +0.000 C 
BRANCH 105 106
ATOM    106  CD  LEU A   2      12.111   4.790  11.260  0.00  0.00    +0.000 C 
ATOM    107  NE2 LEU A   2      13.344   4.912  11.747  0.00  0.00    +0.000 N 
ATOM    108 HE21 LEU A   2      13.883   4.064  12.016  0.00  0.00    +0.000 HD
ATOM    109 HE22 LEU A   2      13.768   5.855  11.858  0.00  0.00    +0.000 HD
ATOM    110  OE1 LEU A   2      11.567   3.694  11.110  0.00  0.00    +0.000 OA
ENDBRANCH 105 106
ENDBRANCH 104 105
ENDBRANCH  92 104
ENDBRANCH  88  92
ENDBRANCH  87  90
BRANCH  87 111
ATOM    111  C   UNK A   3       7.146   1.589  11.210  0.00  0.00    +0.000 C 
BRANCH 111 112
ATOM    112  C   UNK A   3       6.405   1.110   9.975  0.00  0.00    +0.000 A 
ATOM    113  C   UNK A   3       5.281   1.797   9.529  0.00  0.00    +0.000 A 
ATOM    114  C   UNK A   3       4.575   1.369   8.419  0.00  0.00    +0.000 A 
ATOM    115  C   UNK A   3       4.958   0.211   7.749  0.00  0.00    +0.000 A 
ATOM    116  C   UNK A   3       6.060  -0.500   8.196  0.00  0.00    +0.000 A 
ATOM    117  C   UNK A   3       6.770  -0.059   9.309  0.00  0.00    +0.000 A 
ENDBRANCH 111 112
ENDBRANCH  87 111
ENDBRANCH  83  87
ENDBRANCH   1  84
BRANCH   9 118
ATOM    118  C   UNK A   6      13.780  -7.874  12.465  0.00  0.00    +0.000 C 
ATOM    119  O   UNK A   6      12.703  -8.219  12.973  0.00  0.00    +0.000 OA
ENDBRANCH   9 118
BRANCH   5 120
ATOM    120  CB  VAL A   5      10.711  -5.290  10.485  0.00  0.00    +0.000 C 
BRANCH 120 121
ATOM    121  CG  VAL A   5       9.271  -4.999  10.147  0.00  0.00    +0.000 A 
ATOM    122  CD2 VAL A   5       8.227  -5.624  10.841  0.00  0.00    +0.000 A 
ATOM    123  CE2 VAL A   5       6.906  -5.403  10.471  0.00  0.00    +0.000 A 
ATOM    124  CZ  VAL A   5       6.615  -4.554   9.411  0.00  0.00    +0.000 A 
ATOM    125  CE1 VAL A   5       7.630  -3.946   8.712  0.00  0.00    +0.000 A 
ATOM    126  CD1 VAL A   5       8.946  -4.168   9.069  0.00  0.00    +0.000 A 
ENDBRANCH 120 121
ENDBRANCH   5 120
TORSDOF 42
REMARK  Name = ../refined-set-2016/5byi/5byi_pocket.pdb
REMARK  155 active torsions:
REMARK  status: ('A' for Active; 'I' for Inactive)
REMARK    1  A    between atoms: _1  and  _3
REMARK    2  A    between atoms: _3  and  _4
REMARK    3  A    between atoms: _3  and  _6
REMARK    4  A    between atoms: _6  and  _7
REMARK    5  A    between atoms: _17  and  _19
REMARK    6  A    between atoms: _19  and  _20
REMARK    7  A    between atoms: _19  and  _22
REMARK    8  A    between atoms: _22  and  _23
REMARK    9  A    between atoms: _28  and  _29
REMARK   10  A    between atoms: _31  and  _33
REMARK   11  A    between atoms: _33  and  _34
REMARK   12  A    between atoms: _33  and  _36
REMARK   13  A    between atoms: _36  and  _37
REMARK   14  A    between atoms: _43  and  _45
REMARK   15  A    between atoms: _45  and  _46
REMARK   16  A    between atoms: _45  and  _48
REMARK   17  A    between atoms: _48  and  _49
REMARK   18  A    between atoms: _52  and  _53
REMARK   19  A    between atoms: _58  and  _60
REMARK   20  A    between atoms: _60  and  _61
REMARK   21  A    between atoms: _60  and  _63
REMARK   22  A    between atoms: _63  and  _64
REMARK   23  A    between atoms: _69  and  _71
REMARK   24  A    between atoms: _71  and  _72
REMARK   25  A    between atoms: _71  and  _74
REMARK   26  A    between atoms: _74  and  _75
REMARK   27  A    between atoms: _80  and  _82
REMARK   28  A    between atoms: _82  and  _83
REMARK   29  A    between atoms: _86  and  _88
REMARK   30  A    between atoms: _88  and  _89
REMARK   31  A    between atoms: _88  and  _91
REMARK   32  A    between atoms: _91  and  _92
REMARK   33  A    between atoms: _97  and  _99
REMARK   34  A    between atoms: _99  and  _100
REMARK   35  A    between atoms: _99  and  _102
REMARK   36  A    between atoms: _102  and  _103
REMARK   37  A    between atoms: _106  and  _108
REMARK   38  A    between atoms: _108  and  _109
REMARK   39  A    between atoms: _108  and  _111
REMARK   40  A    between atoms: _111  and  _112
REMARK   41  A    between atoms: _112  and  _113
REMARK   42  A    between atoms: _118  and  _120
REMARK   43  A    between atoms: _120  and  _121
REMARK   44  A    between atoms: _120  and  _123
REMARK   45  A    between atoms: _123  and  _124
REMARK   46  A    between atoms: _130  and  _132
REMARK   47  A    between atoms: _143  and  _146
REMARK   48  A    between atoms: _146  and  _147
REMARK   49  A    between atoms: _155  and  _156
REMARK   50  A    between atoms: _164  and  _166
REMARK   51  A    between atoms: _166  and  _167
REMARK   52  A    between atoms: _166  and  _169
REMARK   53  A    between atoms: _169  and  _170
REMARK   54  A    between atoms: _170  and  _171
REMARK   55  A    between atoms: _174  and  _176
REMARK   56  A    between atoms: _176  and  _177
REMARK   57  A    between atoms: _176  and  _179
REMARK   58  A    between atoms: _179  and  _180
REMARK   59  A    between atoms: _185  and  _187
REMARK   60  A    between atoms: _187  and  _188
REMARK   61  A    between atoms: _187  and  _190
REMARK   62  A    between atoms: _190  and  _191
REMARK   63  A    between atoms: _191  and  _192
REMARK   64  A    between atoms: _195  and  _197
REMARK   65  A    between atoms: _197  and  _198
REMARK   66  A    between atoms: _197  and  _200
REMARK   67  A    between atoms: _200  and  _201
REMARK   68  A    between atoms: _204  and  _206
REMARK   69  A    between atoms: _206  and  _207
REMARK   70  A    between atoms: _206  and  _209
REMARK   71  A    between atoms: _209  and  _210
REMARK   72  A    between atoms: _211  and  ZN_436
REMARK   73  A    between atoms: _215  and  _217
REMARK   74  A    between atoms: _217  and  _218
REMARK   75  A    between atoms: _217  and  _220
REMARK   76  A    between atoms: _220  and  _221
REMARK   77  A    between atoms: _224  and  _226
REMARK   78  A    between atoms: _226  and  _227
REMARK   79  A    between atoms: _226  and  _229
REMARK   80  A    between atoms: _232  and  _234
REMARK   81  A    between atoms: _234  and  _235
REMARK   82  A    between atoms: _234  and  _237
REMARK   83  A    between atoms: _237  and  _238
REMARK   84  A    between atoms: _243  and  _245
REMARK   85  A    between atoms: _245  and  _246
REMARK   86  A    between atoms: _245  and  _248
REMARK   87  A    between atoms: _248  and  _249
REMARK   88  A    between atoms: _255  and  _257
REMARK   89  A    between atoms: _257  and  _258
REMARK   90  A    between atoms: _260  and  _262
REMARK   91  A    between atoms: _262  and  _263
REMARK   92  A    between atoms: _262  and  _265
REMARK   93  A    between atoms: _268  and  _270
REMARK   94  A    between atoms: _270  and  _271
REMARK   95  A    between atoms: _270  and  _273
REMARK   96  A    between atoms: _273  and  _274
REMARK   97  A    between atoms: _277  and  _279
REMARK   98  A    between atoms: _279  and  _280
REMARK   99  A    between atoms: _283  and  _285
REMARK  100  A    between atoms: _285  and  _286
REMARK  101  A    between atoms: _285  and  _288
REMARK  102  A    between atoms: _291  and  _293
REMARK  103  A    between atoms: _293  and  _294
REMARK  104  A    between atoms: _293  and  _296
REMARK  105  A    between atoms: _296  and  _297
REMARK  106  A    between atoms: _300  and  _302
REMARK  107  A    between atoms: _302  and  _303
REMARK  108  A    between atoms: _305  and  _307
REMARK  109  A    between atoms: _307  and  _308
REMARK  110  A    between atoms: _310  and  _312
REMARK  111  A    between atoms: _312  and  _313
REMARK  112  A    between atoms: _312  and  _315
REMARK  113  A    between atoms: _315  and  _316
REMARK  114  A    between atoms: _318  and  _320
REMARK  115  A    between atoms: _320  and  _321
REMARK  116  A    between atoms: _320  and  _323
REMARK  117  A    between atoms: _323  and  _324
REMARK  118  A    between atoms: _327  and  _329
REMARK  119  A    between atoms: _329  and  _330
REMARK  120  A    between atoms: _329  and  _332
REMARK  121  A    between atoms: _332  and  _333
REMARK  122  A    between atoms: _336  and  _338
REMARK  123  A    between atoms: _338  and  _339
REMARK  124  A    between atoms: _338  and  _341
REMARK  125  A    between atoms: _341  and  _342
REMARK  126  A    between atoms: _346  and  _347
REMARK  127  A    between atoms: _353  and  _354
REMARK  128  A    between atoms: _359  and  _361
REMARK  129  A    between atoms: _361  and  _362
REMARK  130  A    between atoms: _361  and  _364
REMARK  131  A    between atoms: _364  and  _365
REMARK  132  A    between atoms: _368  and  _370
REMARK  133  A    between atoms: _370  and  _371
REMARK  134  A    between atoms: _370  and  _373
REMARK  135  A    between atoms: _373  and  _374
REMARK  136  A    between atoms: _377  and  _379
REMARK  137  A    between atoms: _379  and  _380
REMARK  138  A    between atoms: _379  and  _382
REMARK  139  A    between atoms: _384  and  _386
REMARK  140  A    between atoms: _386  and  _387
REMARK  141  A    between atoms: _386  and  _389
REMARK  142  A    between atoms: _392  and  _394
REMARK  143  A    between atoms: _394  and  _395
REMARK  144  A    between atoms: _394  and  _397
REMARK  145  A    between atoms: _397  and  _398
REMARK  146  A    between atoms: _408  and  _410
REMARK  147  A    between atoms: _410  and  _411
REMARK  148  A    between atoms: _410  and  _413
REMARK  149  A    between atoms: _413  and  _414
REMARK  150  A    between atoms: _419  and  _421
REMARK  151  A    between atoms: _421  and  _422
REMARK  152  A    between atoms: _421  and  _424
REMARK  153  A    between atoms: _424  and  _425
REMARK  154  A    between atoms: _425  and  _426
REMARK  155  A    between atoms: _426  and  _427
REMARK                            x       y       z     vdW  Elec       q    Type
REMARK                         _______ _______ _______ _____ _____    ______ ____
ROOT
ATOM      1  C   GLU A   1      15.143  -7.583  21.038  0.00  0.00    +0.238 C 
ATOM      2  O   GLU A   1      15.943  -8.158  21.808  0.00  0.00    -0.274 OA
ATOM      3  N   HIS A   2      13.971  -7.117  21.458  0.00  0.00    -0.298 N 
ATOM      4  H   HIS A   2      13.402  -6.491  20.854  0.00  0.00    +0.150 HD
ENDROOT
BRANCH   1   5
ATOM      5  CA  GLU A   1      15.464  -7.428  19.551  0.00  0.00    +0.145 C 
BRANCH   5   6
ATOM      6  N   GLU A   1      14.469  -8.133  18.752  0.00  0.00    -0.238 NA
ATOM      7  H   GLU A   1      13.613  -7.618  18.462  0.00  0.00    +0.142 HD
ENDBRANCH   5   6
BRANCH   5   8
ATOM      8  CB  GLU A   1      15.512  -5.980  19.098  0.00  0.00    +0.038 C 
BRANCH   8   9
ATOM      9  CG  GLU A   1      15.952  -5.852  17.650  0.00  0.00    +0.116 C 
BRANCH   9  10
ATOM     10  CD  GLU A   1      16.676  -4.568  17.360  0.00  0.00    +0.365 C 
ATOM     11  OE2 GLU A   1      16.093  -3.494  17.607  0.00  0.00    -0.246 OA
ATOM     12  OE1 GLU A   1      17.831  -4.639  16.890  0.00  0.00    -0.246 OA
ENDBRANCH   9  10
ENDBRANCH   8   9
ENDBRANCH   5   8
ENDBRANCH   1   5
BRANCH   3  13
ATOM     13  CA  HIS A   2      13.502  -7.500  22.777  0.00  0.00    +0.143 C 
BRANCH  13  14
ATOM     14  C   HIS A   2      13.207  -8.985  22.829  0.00  0.00    +0.227 C 
ATOM     15  O   HIS A   2      12.868  -9.614  21.820  0.00  0.00    -0.286 OA
ENDBRANCH  13  14
BRANCH  13  16
ATOM     16  CB  HIS A   2      12.277  -6.676  23.161  0.00  0.00    +0.075 C 
BRANCH  16  17
ATOM     17  CG  HIS A   2      12.591  -5.228  23.307  0.00  0.00    +0.082 A 
ATOM     18  CD2 HIS A   2      13.040  -4.517  24.370  0.00  0.00    +0.115 A 
ATOM     19  NE2 HIS A   2      13.270  -3.233  23.950  0.00  0.00    -0.221 NA
ATOM     20  CE1 HIS A   2      12.955  -3.150  22.670  0.00  0.00    +0.199 A 
ATOM     21  ND1 HIS A   2      12.543  -4.339  22.257  0.00  0.00    -0.227 NA
ENDBRANCH  16  17
ENDBRANCH  13  16
ENDBRANCH   3  13
TORSDOF 9
REMARK  Name = ../refined-set-2016/5byi/5byi_pocket.pdb
REMARK  155 active torsions:
REMARK  status: ('A' for Active; 'I' for Inactive)
REMARK    1  A    between atoms: _1  and  _3
REMARK    2  A    between atoms: _3  and  _4
REMARK    3  A    between atoms: _3  and  _6
REMARK    4  A    between atoms: _6  and  _7
REMARK    5  A    between atoms: _17  and  _19
REMARK    6  A    between atoms: _19  and  _20
REMARK    7  A    between atoms: _19  and  _22
REMARK    8  A    between atoms: _22  and  _23
REMARK    9  A    between atoms: _28  and  _29
REMARK   10  A    between atoms: _31  and  _33
REMARK   11  A    between atoms: _33  and  _34
REMARK   12  A    between atoms: _33  and  _36
REMARK   13  A    between atoms: _36  and  _37
REMARK   14  A    between atoms: _43  and  _45
REMARK   15  A    between atoms: _45  and  _46
REMARK   16  A    between atoms: _45  and  _48
REMARK   17  A    between atoms: _48  and  _49
REMARK   18  A    between atoms: _52  and  _53
REMARK   19  A    between atoms: _58  and  _60
REMARK   20  A    between atoms: _60  and  _61
REMARK   21  A    between atoms: _60  and  _63
REMARK   22  A    between atoms: _63  and  _64
REMARK   23  A    between atoms: _69  and  _71
REMARK   24  A    between atoms: _71  and  _72
REMARK   25  A    between atoms: _71  and  _74
REMARK   26  A    between atoms: _74  and  _75
REMARK   27  A    between atoms: _80  and  _82
REMARK   28  A    between atoms: _82  and  _83
REMARK   29  A    between atoms: _86  and  _88
REMARK   30  A    between atoms: _88  and  _89
REMARK   31  A    between atoms: _88  and  _91
REMARK   32  A    between atoms: _91  and  _92
REMARK   33  A    between atoms: _97  and  _99
REMARK   34  A    between atoms: _99  and  _100
REMARK   35  A    between atoms: _99  and  _102
REMARK   36  A    between atoms: _102  and  _103
REMARK   37  A    between atoms: _106  and  _108
REMARK   38  A    between atoms: _108  and  _109
REMARK   39  A    between atoms: _108  and  _111
REMARK   40  A    between atoms: _111  and  _112
REMARK   41  A    between atoms: _112  and  _113
REMARK   42  A    between atoms: _118  and  _120
REMARK   43  A    between atoms: _120  and  _121
REMARK   44  A    between atoms: _120  and  _123
REMARK   45  A    between atoms: _123  and  _124
REMARK   46  A    between atoms: _130  and  _132
REMARK   47  A    between atoms: _143  and  _146
REMARK   48  A    between atoms: _146  and  _147
REMARK   49  A    between atoms: _155  and  _156
REMARK   50  A    between atoms: _164  and  _166
REMARK   51  A    between atoms: _166  and  _167
REMARK   52  A    between atoms: _166  and  _169
REMARK   53  A    between atoms: _169  and  _170
REMARK   54  A    between atoms: _170  and  _171
REMARK   55  A    between atoms: _174  and  _176
REMARK   56  A    between atoms: _176  and  _177
REMARK   57  A    between atoms: _176  and  _179
REMARK   58  A    between atoms: _179  and  _180
REMARK   59  A    between atoms: _185  and  _187
REMARK   60  A    between atoms: _187  and  _188
REMARK   61  A    between atoms: _187  and  _190
REMARK   62  A    between atoms: _190  and  _191
REMARK   63  A    between atoms: _191  and  _192
REMARK   64  A    between atoms: _195  and  _197
REMARK   65  A    between atoms: _197  and  _198
REMARK   66  A    between atoms: _197  and  _200
REMARK   67  A    between atoms: _200  and  _201
REMARK   68  A    between atoms: _204  and  _206
REMARK   69  A    between atoms: _206  and  _207
REMARK   70  A    between atoms: _206  and  _209
REMARK   71  A    between atoms: _209  and  _210
REMARK   72  A    between atoms: _211  and  ZN_436
REMARK   73  A    between atoms: _215  and  _217
REMARK   74  A    between atoms: _217  and  _218
REMARK   75  A    between atoms: _217  and  _220
REMARK   76  A    between atoms: _220  and  _221
REMARK   77  A    between atoms: _224  and  _226
REMARK   78  A    between atoms: _226  and  _227
REMARK   79  A    between atoms: _226  and  _229
REMARK   80  A    between atoms: _232  and  _234
REMARK   81  A    between atoms: _234  and  _235
REMARK   82  A    between atoms: _234  and  _237
REMARK   83  A    between atoms: _237  and  _238
REMARK   84  A    between atoms: _243  and  _245
REMARK   85  A    between atoms: _245  and  _246
REMARK   86  A    between atoms: _245  and  _248
REMARK   87  A    between atoms: _248  and  _249
REMARK   88  A    between atoms: _255  and  _257
REMARK   89  A    between atoms: _257  and  _258
REMARK   90  A    between atoms: _260  and  _262
REMARK   91  A    between atoms: _262  and  _263
REMARK   92  A    between atoms: _262  and  _265
REMARK   93  A    between atoms: _268  and  _270
REMARK   94  A    between atoms: _270  and  _271
REMARK   95  A    between atoms: _270  and  _273
REMARK   96  A    between atoms: _273  and  _274
REMARK   97  A    between atoms: _277  and  _279
REMARK   98  A    between atoms: _279  and  _280
REMARK   99  A    between atoms: _283  and  _285
REMARK  100  A    between atoms: _285  and  _286
REMARK  101  A    between atoms: _285  and  _288
REMARK  102  A    between atoms: _291  and  _293
REMARK  103  A    between atoms: _293  and  _294
REMARK  104  A    between atoms: _293  and  _296
REMARK  105  A    between atoms: _296  and  _297
REMARK  106  A    between atoms: _300  and  _302
REMARK  107  A    between atoms: _302  and  _303
REMARK  108  A    between atoms: _305  and  _307
REMARK  109  A    between atoms: _307  and  _308
REMARK  110  A    between atoms: _310  and  _312
REMARK  111  A    between atoms: _312  and  _313
REMARK  112  A    between atoms: _312  and  _315
REMARK  113  A    between atoms: _315  and  _316
REMARK  114  A    between atoms: _318  and  _320
REMARK  115  A    between atoms: _320  and  _321
REMARK  116  A    between atoms: _320  and  _323
REMARK  117  A    between atoms: _323  and  _324
REMARK  118  A    between atoms: _327  and  _329
REMARK  119  A    between atoms: _329  and  _330
REMARK  120  A    between atoms: _329  and  _332
REMARK  121  A    between atoms: _332  and  _333
REMARK  122  A    between atoms: _336  and  _338
REMARK  123  A    between atoms: _338  and  _339
REMARK  124  A    between atoms: _338  and  _341
REMARK  125  A    between atoms: _341  and  _342
REMARK  126  A    between atoms: _346  and  _347
REMARK  127  A    between atoms: _353  and  _354
REMARK  128  A    between atoms: _359  and  _361
REMARK  129  A    between atoms: _361  and  _362
REMARK  130  A    between atoms: _361  and  _364
REMARK  131  A    between atoms: _364  and  _365
REMARK  132  A    between atoms: _368  and  _370
REMARK  133  A    between atoms: _370  and  _371
REMARK  134  A    between atoms: _370  and  _373
REMARK  135  A    between atoms: _373  and  _374
REMARK  136  A    between atoms: _377  and  _379
REMARK  137  A    between atoms: _379  and  _380
REMARK  138  A    between atoms: _379  and  _382
REMARK  139  A    between atoms: _384  and  _386
REMARK  140  A    between atoms: _386  and  _387
REMARK  141  A    between atoms: _386  and  _389
REMARK  142  A    between atoms: _392  and  _394
REMARK  143  A    between atoms: _394  and  _395
REMARK  144  A    between atoms: _394  and  _397
REMARK  145  A    between atoms: _397  and  _398
REMARK  146  A    between atoms: _408  and  _410
REMARK  147  A    between atoms: _410  and  _411
REMARK  148  A    between atoms: _410  and  _413
REMARK  149  A    between atoms: _413  and  _414
REMARK  150  A    between atoms: _419  and  _421
REMARK  151  A    between atoms: _421  and  _422
REMARK  152  A    between atoms: _421  and  _424
REMARK  153  A    between atoms: _424  and  _425
REMARK  154  A    between atoms: _425  and  _426
REMARK  155  A    between atoms: _426  and  _427
REMARK                            x       y       z     vdW  Elec       q    Type
REMARK                         _______ _______ _______ _____ _____    ______ ____
ROOT
ATOM      1  CA  PHE A   1      13.196  14.496  15.125  0.00  0.00    +0.149 C 
ENDROOT
BRANCH   1   2
ATOM      2  C   PHE A   1      14.643  14.818  15.508  0.00  0.00    +0.239 C 
ATOM      3  O   PHE A   1      15.161  14.303  16.510  0.00  0.00    -0.274 OA
ATOM      4  N   GLY A   2      15.307  15.664  14.720  0.00  0.00    -0.297 N 
ATOM      5  H   GLY A   2      14.825  16.097  13.906  0.00  0.00    +0.150 HD
BRANCH   4   6
ATOM      6  CA  GLY A   2      16.703  15.987  14.990  0.00  0.00    +0.163 C 
BRANCH   6   7
ATOM      7  C   GLY A   2      16.952  16.617  16.354  0.00  0.00    +0.229 C 
ATOM      8  O   GLY A   2      17.930  16.276  17.018  0.00  0.00    -0.286 OA
ENDBRANCH   6   7
ENDBRANCH   4   6
ENDBRANCH   1   2
BRANCH   1   9
ATOM      9  N   PHE A   1      12.438  15.670  14.716  0.00  0.00    -0.238 NA
ATOM     10  H   PHE A   1      12.048  15.714  13.753  0.00  0.00    +0.142 HD
ENDBRANCH   1   9
BRANCH   1  11
ATOM     11  CB  PHE A   1      13.175  13.468  13.998  0.00  0.00    +0.053 C 
BRANCH  11  12
ATOM     12  CG  PHE A   1      13.911  12.195  14.306  0.00  0.00    -0.020 A 
ATOM     13  CD2 PHE A   1      13.243  11.135  14.896  0.00  0.00    -0.004 A 
ATOM     14  CE2 PHE A   1      13.893   9.936  15.154  0.00  0.00    -0.000 A 
ATOM     15  CZ  PHE A   1      15.238   9.799  14.867  0.00  0.00    -0.000 A 
ATOM     16  CE1 PHE A   1      15.931  10.857  14.297  0.00  0.00    -0.000 A 
ATOM     17  CD1 PHE A   1      15.263  12.040  14.010  0.00  0.00    -0.004 A 
ENDBRANCH  11  12
ENDBRANCH   1  11
TORSDOF 6
REMARK  Name = ../refined-set-2016/5byi/5byi_pocket.pdb
REMARK  155 active torsions:
REMARK  status: ('A' for Active; 'I' for Inactive)
REMARK    1  A    between atoms: _1  and  _3
REMARK    2  A    between atoms: _3  and  _4
REMARK    3  A    between atoms: _3  and  _6
REMARK    4  A    between atoms: _6  and  _7
REMARK    5  A    between atoms: _17  and  _19
REMARK    6  A    between atoms: _19  and  _20
REMARK    7  A    between atoms: _19  and  _22
REMARK    8  A    between atoms: _22  and  _23
REMARK    9  A    between atoms: _28  and  _29
REMARK   10  A    between atoms: _31  and  _33
REMARK   11  A    between atoms: _33  and  _34
REMARK   12  A    between atoms: _33  and  _36
REMARK   13  A    between atoms: _36  and  _37
REMARK   14  A    between atoms: _43  and  _45
REMARK   15  A    between atoms: _45  and  _46
REMARK   16  A    between atoms: _45  and  _48
REMARK   17  A    between atoms: _48  and  _49
REMARK   18  A    between atoms: _52  and  _53
REMARK   19  A    between atoms: _58  and  _60
REMARK   20  A    between atoms: _60  and  _61
REMARK   21  A    between atoms: _60  and  _63
REMARK   22  A    between atoms: _63  and  _64
REMARK   23  A    between atoms: _69  and  _71
REMARK   24  A    between atoms: _71  and  _72
REMARK   25  A    between atoms: _71  and  _74
REMARK   26  A    between atoms: _74  and  _75
REMARK   27  A    between atoms: _80  and  _82
REMARK   28  A    between atoms: _82  and  _83
REMARK   29  A    between atoms: _86  and  _88
REMARK   30  A    between atoms: _88  and  _89
REMARK   31  A    between atoms: _88  and  _91
REMARK   32  A    between atoms: _91  and  _92
REMARK   33  A    between atoms: _97  and  _99
REMARK   34  A    between atoms: _99  and  _100
REMARK   35  A    between atoms: _99  and  _102
REMARK   36  A    between atoms: _102  and  _103
REMARK   37  A    between atoms: _106  and  _108
REMARK   38  A    between atoms: _108  and  _109
REMARK   39  A    between atoms: _108  and  _111
REMARK   40  A    between atoms: _111  and  _112
REMARK   41  A    between atoms: _112  and  _113
REMARK   42  A    between atoms: _118  and  _120
REMARK   43  A    between atoms: _120  and  _121
REMARK   44  A    between atoms: _120  and  _123
REMARK   45  A    between atoms: _123  and  _124
REMARK   46  A    between atoms: _130  and  _132
REMARK   47  A    between atoms: _143  and  _146
REMARK   48  A    between atoms: _146  and  _147
REMARK   49  A    between atoms: _155  and  _156
REMARK   50  A    between atoms: _164  and  _166
REMARK   51  A    between atoms: _166  and  _167
REMARK   52  A    between atoms: _166  and  _169
REMARK   53  A    between atoms: _169  and  _170
REMARK   54  A    between atoms: _170  and  _171
REMARK   55  A    between atoms: _174  and  _176
REMARK   56  A    between atoms: _176  and  _177
REMARK   57  A    between atoms: _176  and  _179
REMARK   58  A    between atoms: _179  and  _180
REMARK   59  A    between atoms: _185  and  _187
REMARK   60  A    between atoms: _187  and  _188
REMARK   61  A    between atoms: _187  and  _190
REMARK   62  A    between atoms: _190  and  _191
REMARK   63  A    between atoms: _191  and  _192
REMARK   64  A    between atoms: _195  and  _197
REMARK   65  A    between atoms: _197  and  _198
REMARK   66  A    between atoms: _197  and  _200
REMARK   67  A    between atoms: _200  and  _201
REMARK   68  A    between atoms: _204  and  _206
REMARK   69  A    between atoms: _206  and  _207
REMARK   70  A    between atoms: _206  and  _209
REMARK   71  A    between atoms: _209  and  _210
REMARK   72  A    between atoms: _211  and  ZN_436
REMARK   73  A    between atoms: _215  and  _217
REMARK   74  A    between atoms: _217  and  _218
REMARK   75  A    between atoms: _217  and  _220
REMARK   76  A    between atoms: _220  and  _221
REMARK   77  A    between atoms: _224  and  _226
REMARK   78  A    between atoms: _226  and  _227
REMARK   79  A    between atoms: _226  and  _229
REMARK   80  A    between atoms: _232  and  _234
REMARK   81  A    between atoms: _234  and  _235
REMARK   82  A    between atoms: _234  and  _237
REMARK   83  A    between atoms: _237  and  _238
REMARK   84  A    between atoms: _243  and  _245
REMARK   85  A    between atoms: _245  and  _246
REMARK   86  A    between atoms: _245  and  _248
REMARK   87  A    between atoms: _248  and  _249
REMARK   88  A    between atoms: _255  and  _257
REMARK   89  A    between atoms: _257  and  _258
REMARK   90  A    between atoms: _260  and  _262
REMARK   91  A    between atoms: _262  and  _263
REMARK   92  A    between atoms: _262  and  _265
REMARK   93  A    between atoms: _268  and  _270
REMARK   94  A    between atoms: _270  and  _271
REMARK   95  A    between atoms: _270  and  _273
REMARK   96  A    between atoms: _273  and  _274
REMARK   97  A    between atoms: _277  and  _279
REMARK   98  A    between atoms: _279  and  _280
REMARK   99  A    between atoms: _283  and  _285
REMARK  100  A    between atoms: _285  and  _286
REMARK  101  A    between atoms: _285  and  _288
REMARK  102  A    between atoms: _291  and  _293
REMARK  103  A    between atoms: _293  and  _294
REMARK  104  A    between atoms: _293  and  _296
REMARK  105  A    between atoms: _296  and  _297
REMARK  106  A    between atoms: _300  and  _302
REMARK  107  A    between atoms: _302  and  _303
REMARK  108  A    between atoms: _305  and  _307
REMARK  109  A    between atoms: _307  and  _308
REMARK  110  A    between atoms: _310  and  _312
REMARK  111  A    between atoms: _312  and  _313
REMARK  112  A    between atoms: _312  and  _315
REMARK  113  A    between atoms: _315  and  _316
REMARK  114  A    between atoms: _318  and  _320
REMARK  115  A    between atoms: _320  and  _321
REMARK  116  A    between atoms: _320  and  _323
REMARK  117  A    between atoms: _323  and  _324
REMARK  118  A    between atoms: _327  and  _329
REMARK  119  A    between atoms: _329  and  _330
REMARK  120  A    between atoms: _329  and  _332
REMARK  121  A    between atoms: _332  and  _333
REMARK  122  A    between atoms: _336  and  _338
REMARK  123  A    between atoms: _338  and  _339
REMARK  124  A    between atoms: _338  and  _341
REMARK  125  A    between atoms: _341  and  _342
REMARK  126  A    between atoms: _346  and  _347
REMARK  127  A    between atoms: _353  and  _354
REMARK  128  A    between atoms: _359  and  _361
REMARK  129  A    between atoms: _361  and  _362
REMARK  130  A    between atoms: _361  and  _364
REMARK  131  A    between atoms: _364  and  _365
REMARK  132  A    between atoms: _368  and  _370
REMARK  133  A    between atoms: _370  and  _371
REMARK  134  A    between atoms: _370  and  _373
REMARK  135  A    between atoms: _373  and  _374
REMARK  136  A    between atoms: _377  and  _379
REMARK  137  A    between atoms: _379  and  _380
REMARK  138  A    between atoms: _379  and  _382
REMARK  139  A    between atoms: _384  and  _386
REMARK  140  A    between atoms: _386  and  _387
REMARK  141  A    between atoms: _386  and  _389
REMARK  142  A    between atoms: _392  and  _394
REMARK  143  A    between atoms: _394  and  _395
REMARK  144  A    between atoms: _394  and  _397
REMARK  145  A    between atoms: _397  and  _398
REMARK  146  A    between atoms: _408  and  _410
REMARK  147  A    between atoms: _410  and  _411
REMARK  148  A    between atoms: _410  and  _413
REMARK  149  A    between atoms: _413  and  _414
REMARK  150  A    between atoms: _419  and  _421
REMARK  151  A    between atoms: _421  and  _422
REMARK  152  A    between atoms: _421  and  _424
REMARK  153  A    between atoms: _424  and  _425
REMARK  154  A    between atoms: _425  and  _426
REMARK  155  A    between atoms: _426  and  _427
REMARK                            x       y       z     vdW  Elec       q    Type
REMARK                         _______ _______ _______ _____ _____    ______ ____
ROOT
ATOM      1  CA  VAL A   1      17.330  12.979  19.636  0.00  0.00    +0.133 C 
ENDROOT
BRANCH   1   2
ATOM      2  CB  VAL A   1      17.830  12.128  18.440  0.00  0.00    +0.023 C 
ATOM      3  CG2 VAL A   1      16.689  11.291  17.894  0.00  0.00    +0.002 C 
ATOM      4  CG1 VAL A   1      18.487  12.975  17.346  0.00  0.00    +0.002 C 
ENDBRANCH   1   2
BRANCH   1   5
ATOM      5  N   VAL A   1      16.275  13.929  19.293  0.00  0.00    -0.239 NA
ATOM      6  H   VAL A   1      16.211  14.317  18.330  0.00  0.00    +0.142 HD
ENDBRANCH   1   5
BRANCH   1   7
ATOM      7  C   VAL A   1      18.495  13.599  20.398  0.00  0.00    +0.224 C 
ATOM      8  O   VAL A   1      19.506  12.943  20.639  0.00  0.00    -0.287 OA
ENDBRANCH   1   7
TORSDOF 3
REMARK  Name = ../refined-set-2016/5byi/5byi_pocket.pdb
REMARK  155 active torsions:
REMARK  status: ('A' for Active; 'I' for Inactive)
REMARK    1  A    between atoms: _1  and  _3
REMARK    2  A    between atoms: _3  and  _4
REMARK    3  A    between atoms: _3  and  _6
REMARK    4  A    between atoms: _6  and  _7
REMARK    5  A    between atoms: _17  and  _19
REMARK    6  A    between atoms: _19  and  _20
REMARK    7  A    between atoms: _19  and  _22
REMARK    8  A    between atoms: _22  and  _23
REMARK    9  A    between atoms: _28  and  _29
REMARK   10  A    between atoms: _31  and  _33
REMARK   11  A    between atoms: _33  and  _34
REMARK   12  A    between atoms: _33  and  _36
REMARK   13  A    between atoms: _36  and  _37
REMARK   14  A    between atoms: _43  and  _45
REMARK   15  A    between atoms: _45  and  _46
REMARK   16  A    between atoms: _45  and  _48
REMARK   17  A    between atoms: _48  and  _49
REMARK   18  A    between atoms: _52  and  _53
REMARK   19  A    between atoms: _58  and  _60
REMARK   20  A    between atoms: _60  and  _61
REMARK   21  A    between atoms: _60  and  _63
REMARK   22  A    between atoms: _63  and  _64
REMARK   23  A    between atoms: _69  and  _71
REMARK   24  A    between atoms: _71  and  _72
REMARK   25  A    between atoms: _71  and  _74
REMARK   26  A    between atoms: _74  and  _75
REMARK   27  A    between atoms: _80  and  _82
REMARK   28  A    between atoms: _82  and  _83
REMARK   29  A    between atoms: _86  and  _88
REMARK   30  A    between atoms: _88  and  _89
REMARK   31  A    between atoms: _88  and  _91
REMARK   32  A    between atoms: _91  and  _92
REMARK   33  A    between atoms: _97  and  _99
REMARK   34  A    between atoms: _99  and  _100
REMARK   35  A    between atoms: _99  and  _102
REMARK   36  A    between atoms: _102  and  _103
REMARK   37  A    between atoms: _106  and  _108
REMARK   38  A    between atoms: _108  and  _109
REMARK   39  A    between atoms: _108  and  _111
REMARK   40  A    between atoms: _111  and  _112
REMARK   41  A    between atoms: _112  and  _113
REMARK   42  A    between atoms: _118  and  _120
REMARK   43  A    between atoms: _120  and  _121
REMARK   44  A    between atoms: _120  and  _123
REMARK   45  A    between atoms: _123  and  _124
REMARK   46  A    between atoms: _130  and  _132
REMARK   47  A    between atoms: _143  and  _146
REMARK   48  A    between atoms: _146  and  _147
REMARK   49  A    between atoms: _155  and  _156
REMARK   50  A    between atoms: _164  and  _166
REMARK   51  A    between atoms: _166  and  _167
REMARK   52  A    between atoms: _166  and  _169
REMARK   53  A    between atoms: _169  and  _170
REMARK   54  A    between atoms: _170  and  _171
REMARK   55  A    between atoms: _174  and  _176
REMARK   56  A    between atoms: _176  and  _177
REMARK   57  A    between atoms: _176  and  _179
REMARK   58  A    between atoms: _179  and  _180
REMARK   59  A    between atoms: _185  and  _187
REMARK   60  A    between atoms: _187  and  _188
REMARK   61  A    between atoms: _187  and  _190
REMARK   62  A    between atoms: _190  and  _191
REMARK   63  A    between atoms: _191  and  _192
REMARK   64  A    between atoms: _195  and  _197
REMARK   65  A    between atoms: _197  and  _198
REMARK   66  A    between atoms: _197  and  _200
REMARK   67  A    between atoms: _200  and  _201
REMARK   68  A    between atoms: _204  and  _206
REMARK   69  A    between atoms: _206  and  _207
REMARK   70  A    between atoms: _206  and  _209
REMARK   71  A    between atoms: _209  and  _210
REMARK   72  A    between atoms: _211  and  ZN_436
REMARK   73  A    between atoms: _215  and  _217
REMARK   74  A    between atoms: _217  and  _218
REMARK   75  A    between atoms: _217  and  _220
REMARK   76  A    between atoms: _220  and  _221
REMARK   77  A    between atoms: _224  and  _226
REMARK   78  A    between atoms: _226  and  _227
REMARK   79  A    between atoms: _226  and  _229
REMARK   80  A    between atoms: _232  and  _234
REMARK   81  A    between atoms: _234  and  _235
REMARK   82  A    between atoms: _234  and  _237
REMARK   83  A    between atoms: _237  and  _238
REMARK   84  A    between atoms: _243  and  _245
REMARK   85  A    between atoms: _245  and  _246
REMARK   86  A    between atoms: _245  and  _248
REMARK   87  A    between atoms: _248  and  _249
REMARK   88  A    between atoms: _255  and  _257
REMARK   89  A    between atoms: _257  and  _258
REMARK   90  A    between atoms: _260  and  _262
REMARK   91  A    between atoms: _262  and  _263
REMARK   92  A    between atoms: _262  and  _265
REMARK   93  A    between atoms: _268  and  _270
REMARK   94  A    between atoms: _270  and  _271
REMARK   95  A    between atoms: _270  and  _273
REMARK   96  A    between atoms: _273  and  _274
REMARK   97  A    between atoms: _277  and  _279
REMARK   98  A    between atoms: _279  and  _280
REMARK   99  A    between atoms: _283  and  _285
REMARK  100  A    between atoms: _285  and  _286
REMARK  101  A    between atoms: _285  and  _288
REMARK  102  A    between atoms: _291  and  _293
REMARK  103  A    between atoms: _293  and  _294
REMARK  104  A    between atoms: _293  and  _296
REMARK  105  A    between atoms: _296  and  _297
REMARK  106  A    between atoms: _300  and  _302
REMARK  107  A    between atoms: _302  and  _303
REMARK  108  A    between atoms: _305  and  _307
REMARK  109  A    between atoms: _307  and  _308
REMARK  110  A    between atoms: _310  and  _312
REMARK  111  A    between atoms: _312  and  _313
REMARK  112  A    between atoms: _312  and  _315
REMARK  113  A    between atoms: _315  and  _316
REMARK  114  A    between atoms: _318  and  _320
REMARK  115  A    between atoms: _320  and  _321
REMARK  116  A    between atoms: _320  and  _323
REMARK  117  A    between atoms: _323  and  _324
REMARK  118  A    between atoms: _327  and  _329
REMARK  119  A    between atoms: _329  and  _330
REMARK  120  A    between atoms: _329  and  _332
REMARK  121  A    between atoms: _332  and  _333
REMARK  122  A    between atoms: _336  and  _338
REMARK  123  A    between atoms: _338  and  _339
REMARK  124  A    between atoms: _338  and  _341
REMARK  125  A    between atoms: _341  and  _342
REMARK  126  A    between atoms: _346  and  _347
REMARK  127  A    between atoms: _353  and  _354
REMARK  128  A    between atoms: _359  and  _361
REMARK  129  A    between atoms: _361  and  _362
REMARK  130  A    between atoms: _361  and  _364
REMARK  131  A    between atoms: _364  and  _365
REMARK  132  A    between atoms: _368  and  _370
REMARK  133  A    between atoms: _370  and  _371
REMARK  134  A    between atoms: _370  and  _373
REMARK  135  A    between atoms: _373  and  _374
REMARK  136  A    between atoms: _377  and  _379
REMARK  137  A    between atoms: _379  and  _380
REMARK  138  A    between atoms: _379  and  _382
REMARK  139  A    between atoms: _384  and  _386
REMARK  140  A    between atoms: _386  and  _387
REMARK  141  A    between atoms: _386  and  _389
REMARK  142  A    between atoms: _392  and  _394
REMARK  143  A    between atoms: _394  and  _395
REMARK  144  A    between atoms: _394  and  _397
REMARK  145  A    between atoms: _397  and  _398
REMARK  146  A    between atoms: _408  and  _410
REMARK  147  A    between atoms: _410  and  _411
REMARK  148  A    between atoms: _410  and  _413
REMARK  149  A    between atoms: _413  and  _414
REMARK  150  A    between atoms: _419  and  _421
REMARK  151  A    between atoms: _421  and  _422
REMARK  152  A    between atoms: _421  and  _424
REMARK  153  A    between atoms: _424  and  _425
REMARK  154  A    between atoms: _425  and  _426
REMARK  155  A    between atoms: _426  and  _427
REMARK                            x       y       z     vdW  Elec       q    Type
REMARK                         _______ _______ _______ _____ _____    ______ ____
ROOT
ATOM      1  CA  VAL A   3       9.190   3.548  20.014  0.00  0.00    +0.149 C 
ENDROOT
BRANCH   1   3
ATOM      2  C   ALA A   2       8.848   5.839  20.732  0.00  0.00    +0.241 C 
ATOM      3  N   VAL A   3       9.281   4.612  21.006  0.00  0.00    -0.297 N 
ATOM      4  H   VAL A   3       9.690   4.409  21.940  0.00  0.00    +0.150 HD
ATOM      5  O   ALA A   2       8.456   6.188  19.601  0.00  0.00    -0.273 OA
BRANCH   2   6
ATOM      6  CA  ALA A   2       8.906   6.830  21.865  0.00  0.00    +0.149 C 
ATOM      7  CB  ALA A   2       7.506   7.218  22.318  0.00  0.00    +0.031 C 
BRANCH   6  10
ATOM      8  C   LEU A   1      10.640   8.538  22.051  0.00  0.00    +0.238 C 
ATOM      9  O   LEU A   1      10.889   8.255  23.247  0.00  0.00    -0.274 OA
ATOM     10  N   ALA A   2       9.643   7.991  21.359  0.00  0.00    -0.297 N 
ATOM     11  H   ALA A   2       9.381   8.397  20.438  0.00  0.00    +0.150 HD
BRANCH   8  12
ATOM     12  CA  LEU A   1      11.497   9.520  21.284  0.00  0.00    +0.145 C 
BRANCH  12  13
ATOM     13  N   LEU A   1      12.117  10.497  22.189  0.00  0.00    -0.238 NA
ATOM     14  H   LEU A   1      12.618  10.162  23.037  0.00  0.00    +0.142 HD
ENDBRANCH  12  13
BRANCH  12  15
ATOM     15  CB  LEU A   1      12.557   8.721  20.520  0.00  0.00    +0.026 C 
BRANCH  15  16
ATOM     16  CG  LEU A   1      13.507   9.503  19.617  0.00  0.00    +0.002 C 
ATOM     17  CD2 LEU A   1      14.467   8.527  18.961  0.00  0.00    +0.000 C 
ATOM     18  CD1 LEU A   1      12.792  10.355  18.566  0.00  0.00    +0.000 C 
ENDBRANCH  15  16
ENDBRANCH  12  15
ENDBRANCH   8  12
ENDBRANCH   6  10
ENDBRANCH   2   6
ENDBRANCH   1   3
BRANCH   1  19
ATOM     19  C   VAL A   3       8.210   2.510  20.509  0.00  0.00    +0.241 C 
ATOM     20  O   VAL A   3       8.331   2.003  21.636  0.00  0.00    -0.273 OA
ATOM     21  N   LEU A   4       7.208   2.255  19.669  0.00  0.00    -0.297 N 
ATOM     22  H   LEU A   4       7.127   2.824  18.802  0.00  0.00    +0.150 HD
BRANCH  21  23
ATOM     23  CA  LEU A   4       6.230   1.221  19.912  0.00  0.00    +0.149 C 
BRANCH  23  24
ATOM     24  C   LEU A   4       6.735  -0.040  19.229  0.00  0.00    +0.241 C 
ATOM     25  N   GLY A   5       7.041  -1.060  20.023  0.00  0.00    -0.296 N 
ATOM     26  H   GLY A   5       6.890  -0.956  21.047  0.00  0.00    +0.150 HD
ATOM     27  O   LEU A   4       6.881  -0.082  17.993  0.00  0.00    -0.273 OA
BRANCH  25  28
ATOM     28  CA  GLY A   5       7.574  -2.307  19.526  0.00  0.00    +0.163 C 
BRANCH  28  29
ATOM     29  C   GLY A   5       6.519  -3.397  19.552  0.00  0.00    +0.229 C 
ATOM     30  O   GLY A   5       5.763  -3.533  20.521  0.00  0.00    -0.286 OA
ENDBRANCH  28  29
ENDBRANCH  25  28
ENDBRANCH  23  24
BRANCH  23  31
ATOM     31  CB  LEU A   4       4.863   1.655  19.376  0.00  0.00    +0.029 C 
BRANCH  31  32
ATOM     32  CG  LEU A   4       3.700   0.691  19.530  0.00  0.00    +0.002 C 
ATOM     33  CD2 LEU A   4       3.399   0.333  20.970  0.00  0.00    +0.000 C 
ATOM     34  CD1 LEU A   4       2.466   1.268  18.852  0.00  0.00    +0.000 C 
ENDBRANCH  31  32
ENDBRANCH  23  31
ENDBRANCH  21  23
ENDBRANCH   1  19
BRANCH   1  35
ATOM     35  CB  VAL A   3      10.562   2.937  19.639  0.00  0.00    +0.027 C 
ATOM     36  CG2 VAL A   3      11.534   4.009  19.170  0.00  0.00    +0.002 C 
ATOM     37  CG1 VAL A   3      10.370   1.916  18.545  0.00  0.00    +0.002 C 
ENDBRANCH   1  35
TORSDOF 15
REMARK  Name = ../refined-set-2016/5byi/5byi_pocket.pdb
REMARK  155 active torsions:
REMARK  status: ('A' for Active; 'I' for Inactive)
REMARK    1  A    between atoms: _1  and  _3
REMARK    2  A    between atoms: _3  and  _4
REMARK    3  A    between atoms: _3  and  _6
REMARK    4  A    between atoms: _6  and  _7
REMARK    5  A    between atoms: _17  and  _19
REMARK    6  A    between atoms: _19  and  _20
REMARK    7  A    between atoms: _19  and  _22
REMARK    8  A    between atoms: _22  and  _23
REMARK    9  A    between atoms: _28  and  _29
REMARK   10  A    between atoms: _31  and  _33
REMARK   11  A    between atoms: _33  and  _34
REMARK   12  A    between atoms: _33  and  _36
REMARK   13  A    between atoms: _36  and  _37
REMARK   14  A    between atoms: _43  and  _45
REMARK   15  A    between atoms: _45  and  _46
REMARK   16  A    between atoms: _45  and  _48
REMARK   17  A    between atoms: _48  and  _49
REMARK   18  A    between atoms: _52  and  _53
REMARK   19  A    between atoms: _58  and  _60
REMARK   20  A    between atoms: _60  and  _61
REMARK   21  A    between atoms: _60  and  _63
REMARK   22  A    between atoms: _63  and  _64
REMARK   23  A    between atoms: _69  and  _71
REMARK   24  A    between atoms: _71  and  _72
REMARK   25  A    between atoms: _71  and  _74
REMARK   26  A    between atoms: _74  and  _75
REMARK   27  A    between atoms: _80  and  _82
REMARK   28  A    between atoms: _82  and  _83
REMARK   29  A    between atoms: _86  and  _88
REMARK   30  A    between atoms: _88  and  _89
REMARK   31  A    between atoms: _88  and  _91
REMARK   32  A    between atoms: _91  and  _92
REMARK   33  A    between atoms: _97  and  _99
REMARK   34  A    between atoms: _99  and  _100
REMARK   35  A    between atoms: _99  and  _102
REMARK   36  A    between atoms: _102  and  _103
REMARK   37  A    between atoms: _106  and  _108
REMARK   38  A    between atoms: _108  and  _109
REMARK   39  A    between atoms: _108  and  _111
REMARK   40  A    between atoms: _111  and  _112
REMARK   41  A    between atoms: _112  and  _113
REMARK   42  A    between atoms: _118  and  _120
REMARK   43  A    between atoms: _120  and  _121
REMARK   44  A    between atoms: _120  and  _123
REMARK   45  A    between atoms: _123  and  _124
REMARK   46  A    between atoms: _130  and  _132
REMARK   47  A    between atoms: _143  and  _146
REMARK   48  A    between atoms: _146  and  _147
REMARK   49  A    between atoms: _155  and  _156
REMARK   50  A    between atoms: _164  and  _166
REMARK   51  A    between atoms: _166  and  _167
REMARK   52  A    between atoms: _166  and  _169
REMARK   53  A    between atoms: _169  and  _170
REMARK   54  A    between atoms: _170  and  _171
REMARK   55  A    between atoms: _174  and  _176
REMARK   56  A    between atoms: _176  and  _177
REMARK   57  A    between atoms: _176  and  _179
REMARK   58  A    between atoms: _179  and  _180
REMARK   59  A    between atoms: _185  and  _187
REMARK   60  A    between atoms: _187  and  _188
REMARK   61  A    between atoms: _187  and  _190
REMARK   62  A    between atoms: _190  and  _191
REMARK   63  A    between atoms: _191  and  _192
REMARK   64  A    between atoms: _195  and  _197
REMARK   65  A    between atoms: _197  and  _198
REMARK   66  A    between atoms: _197  and  _200
REMARK   67  A    between atoms: _200  and  _201
REMARK   68  A    between atoms: _204  and  _206
REMARK   69  A    between atoms: _206  and  _207
REMARK   70  A    between atoms: _206  and  _209
REMARK   71  A    between atoms: _209  and  _210
REMARK   72  A    between atoms: _211  and  ZN_436
REMARK   73  A    between atoms: _215  and  _217
REMARK   74  A    between atoms: _217  and  _218
REMARK   75  A    between atoms: _217  and  _220
REMARK   76  A    between atoms: _220  and  _221
REMARK   77  A    between atoms: _224  and  _226
REMARK   78  A    between atoms: _226  and  _227
REMARK   79  A    between atoms: _226  and  _229
REMARK   80  A    between atoms: _232  and  _234
REMARK   81  A    between atoms: _234  and  _235
REMARK   82  A    between atoms: _234  and  _237
REMARK   83  A    between atoms: _237  and  _238
REMARK   84  A    between atoms: _243  and  _245
REMARK   85  A    between atoms: _245  and  _246
REMARK   86  A    between atoms: _245  and  _248
REMARK   87  A    between atoms: _248  and  _249
REMARK   88  A    between atoms: _255  and  _257
REMARK   89  A    between atoms: _257  and  _258
REMARK   90  A    between atoms: _260  and  _262
REMARK   91  A    between atoms: _262  and  _263
REMARK   92  A    between atoms: _262  and  _265
REMARK   93  A    between atoms: _268  and  _270
REMARK   94  A    between atoms: _270  and  _271
REMARK   95  A    between atoms: _270  and  _273
REMARK   96  A    between atoms: _273  and  _274
REMARK   97  A    between atoms: _277  and  _279
REMARK   98  A    between atoms: _279  and  _280
REMARK   99  A    between atoms: _283  and  _285
REMARK  100  A    between atoms: _285  and  _286
REMARK  101  A    between atoms: _285  and  _288
REMARK  102  A    between atoms: _291  and  _293
REMARK  103  A    between atoms: _293  and  _294
REMARK  104  A    between atoms: _293  and  _296
REMARK  105  A    between atoms: _296  and  _297
REMARK  106  A    between atoms: _300  and  _302
REMARK  107  A    between atoms: _302  and  _303
REMARK  108  A    between atoms: _305  and  _307
REMARK  109  A    between atoms: _307  and  _308
REMARK  110  A    between atoms: _310  and  _312
REMARK  111  A    between atoms: _312  and  _313
REMARK  112  A    between atoms: _312  and  _315
REMARK  113  A    between atoms: _315  and  _316
REMARK  114  A    between atoms: _318  and  _320
REMARK  115  A    between atoms: _320  and  _321
REMARK  116  A    between atoms: _320  and  _323
REMARK  117  A    between atoms: _323  and  _324
REMARK  118  A    between atoms: _327  and  _329
REMARK  119  A    between atoms: _329  and  _330
REMARK  120  A    between atoms: _329  and  _332
REMARK  121  A    between atoms: _332  and  _333
REMARK  122  A    between atoms: _336  and  _338
REMARK  123  A    between atoms: _338  and  _339
REMARK  124  A    between atoms: _338  and  _341
REMARK  125  A    between atoms: _341  and  _342
REMARK  126  A    between atoms: _346  and  _347
REMARK  127  A    between atoms: _353  and  _354
REMARK  128  A    between atoms: _359  and  _361
REMARK  129  A    between atoms: _361  and  _362
REMARK  130  A    between atoms: _361  and  _364
REMARK  131  A    between atoms: _364  and  _365
REMARK  132  A    between atoms: _368  and  _370
REMARK  133  A    between atoms: _370  and  _371
REMARK  134  A    between atoms: _370  and  _373
REMARK  135  A    between atoms: _373  and  _374
REMARK  136  A    between atoms: _377  and  _379
REMARK  137  A    between atoms: _379  and  _380
REMARK  138  A    between atoms: _379  and  _382
REMARK  139  A    between atoms: _384  and  _386
REMARK  140  A    between atoms: _386  and  _387
REMARK  141  A    between atoms: _386  and  _389
REMARK  142  A    between atoms: _392  and  _394
REMARK  143  A    between atoms: _394  and  _395
REMARK  144  A    between atoms: _394  and  _397
REMARK  145  A    between atoms: _397  and  _398
REMARK  146  A    between atoms: _408  and  _410
REMARK  147  A    between atoms: _410  and  _411
REMARK  148  A    between atoms: _410  and  _413
REMARK  149  A    between atoms: _413  and  _414
REMARK  150  A    between atoms: _419  and  _421
REMARK  151  A    between atoms: _421  and  _422
REMARK  152  A    between atoms: _421  and  _424
REMARK  153  A    between atoms: _424  and  _425
REMARK  154  A    between atoms: _425  and  _426
REMARK  155  A    between atoms: _426  and  _427
REMARK                            x       y       z     vdW  Elec       q    Type
REMARK                         _______ _______ _______ _____ _____    ______ ____
ROOT
ATOM      1  CA  THR A   5      21.242   0.850  16.002  0.00  0.00    +0.176 C 
ENDROOT
BRANCH   1   2
ATOM      2  C   THR A   5      22.049   2.104  16.249  0.00  0.00    +0.246 C 
ATOM      3  O   THR A   5      21.549   3.069  16.825  0.00  0.00    -0.273 OA
ATOM      4  N   PRO A   6      23.326   2.114  15.816  0.00  0.00    -0.272 N 
ATOM      5  CA  PRO A   6      24.085   3.359  15.862  0.00  0.00    +0.152 C 
ATOM      6  CB  PRO A   6      25.313   3.027  15.013  0.00  0.00    +0.031 C 
ATOM      7  CG  PRO A   6      25.527   1.573  15.271  0.00  0.00    +0.024 C 
ATOM      8  CD  PRO A   6      24.127   1.010  15.251  0.00  0.00    +0.094 C 
BRANCH   5   9
ATOM      9  C   PRO A   6      23.248   4.503  15.277  0.00  0.00    +0.244 C 
ATOM     10  N   PRO A   7      23.231   5.666  15.939  0.00  0.00    -0.272 N 
ATOM     11  CA  PRO A   7      24.126   6.109  17.015  0.00  0.00    +0.152 C 
ATOM     12  CB  PRO A   7      24.096   7.637  16.870  0.00  0.00    +0.031 C 
ATOM     13  CG  PRO A   7      22.745   7.920  16.323  0.00  0.00    +0.024 C 
ATOM     14  CD  PRO A   7      22.445   6.785  15.390  0.00  0.00    +0.094 C 
ATOM     15  O   PRO A   6      22.641   4.336  14.216  0.00  0.00    -0.273 OA
BRANCH  11  16
ATOM     16  C   PRO A   7      23.772   5.683  18.455  0.00  0.00    +0.241 C 
ATOM     17  O   PRO A   7      24.433   6.126  19.384  0.00  0.00    -0.273 OA
ATOM     18  N   LEU A   8      22.772   4.820  18.640  0.00  0.00    -0.297 N 
ATOM     19  H   LEU A   8      22.153   4.579  17.840  0.00  0.00    +0.150 HD
BRANCH  18  20
ATOM     20  CA  LEU A   8      22.524   4.197  19.963  0.00  0.00    +0.149 C 
BRANCH  20  21
ATOM     21  C   LEU A   8      22.151   5.211  21.051  0.00  0.00    +0.241 C 
ATOM     22  O   LEU A   8      22.353   4.968  22.245  0.00  0.00    -0.273 OA
ATOM     23  N   LEU A   9      21.545   6.325  20.635  0.00  0.00    -0.298 N 
ATOM     24  H   LEU A   9      21.264   6.397  19.636  0.00  0.00    +0.150 HD
BRANCH  23  25
ATOM     25  CA  LEU A   9      21.263   7.439  21.520  0.00  0.00    +0.137 C 
BRANCH  25  26
ATOM     26  C   LEU A   9      20.219   7.085  22.560  0.00  0.00    +0.227 C 
ATOM     27  O   LEU A   9      19.232   6.401  22.274  0.00  0.00    -0.286 OA
ENDBRANCH  25  26
BRANCH  25  28
ATOM     28  CB  LEU A   9      20.831   8.653  20.711  0.00  0.00    +0.028 C 
BRANCH  28  29
ATOM     29  CG  LEU A   9      21.886   9.191  19.750  0.00  0.00    +0.002 C 
ATOM     30  CD2 LEU A   9      23.104   9.774  20.467  0.00  0.00    +0.000 C 
ATOM     31  CD1 LEU A   9      21.255  10.202  18.793  0.00  0.00    +0.000 C 
ENDBRANCH  28  29
ENDBRANCH  25  28
ENDBRANCH  23  25
ENDBRANCH  20  21
BRANCH  20  32
ATOM     32  CB  LEU A   8      23.709   3.318  20.418  0.00  0.00    +0.029 C 
BRANCH  32  33
ATOM     33  CG  LEU A   8      24.079   2.180  19.469  0.00  0.00    +0.002 C 
ATOM     34  CD2 LEU A   8      25.405   1.543  19.856  0.00  0.00    +0.000 C 
ATOM     35  CD1 LEU A   8      22.986   1.122  19.403  0.00  0.00    +0.000 C 
ENDBRANCH  32  33
ENDBRANCH  20  32
ENDBRANCH  18  20
ENDBRANCH  11  16
ENDBRANCH   5   9
ENDBRANCH   1   2
BRANCH   1  38
ATOM     36  C   THR A   4      20.026  -0.294  17.794  0.00  0.00    +0.243 C 
ATOM     37  O   THR A   4      20.638  -1.345  17.622  0.00  0.00    -0.273 OA
ATOM     38  N   THR A   5      20.186   0.772  17.009  0.00  0.00    -0.295 N 
ATOM     39  H   THR A   5      19.536   1.577  17.117  0.00  0.00    +0.150 HD
BRANCH  36  40
ATOM     40  CA  THR A   4      19.031  -0.161  18.953  0.00  0.00    +0.176 C 
BRANCH  40  43
ATOM     41  C   LEU A   3      18.825   2.112  19.781  0.00  0.00    +0.241 C 
ATOM     42  O   LEU A   3      19.841   1.969  20.481  0.00  0.00    -0.273 OA
ATOM     43  N   THR A   4      18.377   1.148  18.983  0.00  0.00    -0.295 N 
ATOM     44  H   THR A   4      17.553   1.326  18.374  0.00  0.00    +0.150 HD
BRANCH  41  45
ATOM     45  CA  LEU A   3      18.082   3.440  19.756  0.00  0.00    +0.149 C 
BRANCH  45  48
ATOM     46  C   SER A   2      17.541   3.323  22.123  0.00  0.00    +0.243 C 
ATOM     47  O   SER A   2      16.774   2.365  21.966  0.00  0.00    -0.273 OA
ATOM     48  N   LEU A   3      18.082   3.994  21.106  0.00  0.00    -0.297 N 
ATOM     49  H   LEU A   3      18.510   4.926  21.277  0.00  0.00    +0.150 HD
BRANCH  46  50
ATOM     50  CA  SER A   2      17.994   3.752  23.515  0.00  0.00    +0.178 C 
BRANCH  50  53
ATOM     51  C   GLY A   1      16.761   3.771  25.612  0.00  0.00    +0.240 C 
ATOM     52  O   GLY A   1      16.832   5.005  25.734  0.00  0.00    -0.274 OA
ATOM     53  N   SER A   2      17.186   3.111  24.535  0.00  0.00    -0.295 N 
ATOM     54  H   SER A   2      16.931   2.109  24.423  0.00  0.00    +0.150 HD
BRANCH  51  55
ATOM     55  CA  GLY A   1      16.208   2.903  26.715  0.00  0.00    +0.169 C 
BRANCH  55  56
ATOM     56  N   GLY A   1      15.118   3.510  27.439  0.00  0.00    -0.236 NA
ATOM     57  H   GLY A   1      14.502   4.192  26.952  0.00  0.00    +0.142 HD
ENDBRANCH  55  56
ENDBRANCH  51  55
ENDBRANCH  50  53
BRANCH  50  58
ATOM     58  CB  SER A   2      19.471   3.365  23.679  0.00  0.00    +0.166 C 
BRANCH  58  59
ATOM     59  OG  SER A   2      19.729   2.031  23.254  0.00  0.00    -0.380 OA
ATOM     60  H   SER A   2      19.491   1.939  22.297  0.00  0.00    +0.211 HD
ENDBRANCH  58  59
ENDBRANCH  50  58
ENDBRANCH  46  50
ENDBRANCH  45  48
BRANCH  45  61
ATOM     61  CB  LEU A   3      18.791   4.392  18.799  0.00  0.00    +0.029 C 
BRANCH  61  62
ATOM     62  CG  LEU A   3      18.276   5.825  18.750  0.00  0.00    +0.002 C 
ATOM     63  CD2 LEU A   3      16.805   5.872  18.362  0.00  0.00    +0.000 C 
ATOM     64  CD1 LEU A   3      19.103   6.614  17.742  0.00  0.00    +0.000 C 
ENDBRANCH  61  62
ENDBRANCH  45  61
ENDBRANCH  41  45
ENDBRANCH  40  43
BRANCH  40  65
ATOM     65  CB  THR A   4      18.021  -1.307  18.849  0.00  0.00    +0.137 C 
ATOM     66  CG2 THR A   4      16.968  -1.241  19.943  0.00  0.00    +0.034 C 
BRANCH  65  67
ATOM     67  OG1 THR A   4      17.408  -1.258  17.549  0.00  0.00    -0.382 OA
ATOM     68  HG1 THR A   4      16.751  -1.994  17.467  0.00  0.00    +0.210 HD
ENDBRANCH  65  67
ENDBRANCH  40  65
ENDBRANCH  36  40
ENDBRANCH   1  38
BRANCH   1  69
ATOM     69  CB  THR A   5      20.692   0.902  14.556  0.00  0.00    +0.137 C 
ATOM     70  CG2 THR A   5      20.009  -0.383  14.206  0.00  0.00    +0.034 C 
BRANCH  69  71
ATOM     71  OG1 THR A   5      19.745   1.971  14.421  0.00  0.00    -0.382 OA
ATOM     72  HG1 THR A   5      20.188   2.831  14.630  0.00  0.00    +0.210 HD
ENDBRANCH  69  71
ENDBRANCH   1  69
TORSDOF 28
REMARK  Name = ../refined-set-2016/5byi/5byi_pocket.pdb
REMARK  155 active torsions:
REMARK  status: ('A' for Active; 'I' for Inactive)
REMARK    1  A    between atoms: _1  and  _3
REMARK    2  A    between atoms: _3  and  _4
REMARK    3  A    between atoms: _3  and  _6
REMARK    4  A    between atoms: _6  and  _7
REMARK    5  A    between atoms: _17  and  _19
REMARK    6  A    between atoms: _19  and  _20
REMARK    7  A    between atoms: _19  and  _22
REMARK    8  A    between atoms: _22  and  _23
REMARK    9  A    between atoms: _28  and  _29
REMARK   10  A    between atoms: _31  and  _33
REMARK   11  A    between atoms: _33  and  _34
REMARK   12  A    between atoms: _33  and  _36
REMARK   13  A    between atoms: _36  and  _37
REMARK   14  A    between atoms: _43  and  _45
REMARK   15  A    between atoms: _45  and  _46
REMARK   16  A    between atoms: _45  and  _48
REMARK   17  A    between atoms: _48  and  _49
REMARK   18  A    between atoms: _52  and  _53
REMARK   19  A    between atoms: _58  and  _60
REMARK   20  A    between atoms: _60  and  _61
REMARK   21  A    between atoms: _60  and  _63
REMARK   22  A    between atoms: _63  and  _64
REMARK   23  A    between atoms: _69  and  _71
REMARK   24  A    between atoms: _71  and  _72
REMARK   25  A    between atoms: _71  and  _74
REMARK   26  A    between atoms: _74  and  _75
REMARK   27  A    between atoms: _80  and  _82
REMARK   28  A    between atoms: _82  and  _83
REMARK   29  A    between atoms: _86  and  _88
REMARK   30  A    between atoms: _88  and  _89
REMARK   31  A    between atoms: _88  and  _91
REMARK   32  A    between atoms: _91  and  _92
REMARK   33  A    between atoms: _97  and  _99
REMARK   34  A    between atoms: _99  and  _100
REMARK   35  A    between atoms: _99  and  _102
REMARK   36  A    between atoms: _102  and  _103
REMARK   37  A    between atoms: _106  and  _108
REMARK   38  A    between atoms: _108  and  _109
REMARK   39  A    between atoms: _108  and  _111
REMARK   40  A    between atoms: _111  and  _112
REMARK   41  A    between atoms: _112  and  _113
REMARK   42  A    between atoms: _118  and  _120
REMARK   43  A    between atoms: _120  and  _121
REMARK   44  A    between atoms: _120  and  _123
REMARK   45  A    between atoms: _123  and  _124
REMARK   46  A    between atoms: _130  and  _132
REMARK   47  A    between atoms: _143  and  _146
REMARK   48  A    between atoms: _146  and  _147
REMARK   49  A    between atoms: _155  and  _156
REMARK   50  A    between atoms: _164  and  _166
REMARK   51  A    between atoms: _166  and  _167
REMARK   52  A    between atoms: _166  and  _169
REMARK   53  A    between atoms: _169  and  _170
REMARK   54  A    between atoms: _170  and  _171
REMARK   55  A    between atoms: _174  and  _176
REMARK   56  A    between atoms: _176  and  _177
REMARK   57  A    between atoms: _176  and  _179
REMARK   58  A    between atoms: _179  and  _180
REMARK   59  A    between atoms: _185  and  _187
REMARK   60  A    between atoms: _187  and  _188
REMARK   61  A    between atoms: _187  and  _190
REMARK   62  A    between atoms: _190  and  _191
REMARK   63  A    between atoms: _191  and  _192
REMARK   64  A    between atoms: _195  and  _197
REMARK   65  A    between atoms: _197  and  _198
REMARK   66  A    between atoms: _197  and  _200
REMARK   67  A    between atoms: _200  and  _201
REMARK   68  A    between atoms: _204  and  _206
REMARK   69  A    between atoms: _206  and  _207
REMARK   70  A    between atoms: _206  and  _209
REMARK   71  A    between atoms: _209  and  _210
REMARK   72  A    between atoms: _211  and  ZN_436
REMARK   73  A    between atoms: _215  and  _217
REMARK   74  A    between atoms: _217  and  _218
REMARK   75  A    between atoms: _217  and  _220
REMARK   76  A    between atoms: _220  and  _221
REMARK   77  A    between atoms: _224  and  _226
REMARK   78  A    between atoms: _226  and  _227
REMARK   79  A    between atoms: _226  and  _229
REMARK   80  A    between atoms: _232  and  _234
REMARK   81  A    between atoms: _234  and  _235
REMARK   82  A    between atoms: _234  and  _237
REMARK   83  A    between atoms: _237  and  _238
REMARK   84  A    between atoms: _243  and  _245
REMARK   85  A    between atoms: _245  and  _246
REMARK   86  A    between atoms: _245  and  _248
REMARK   87  A    between atoms: _248  and  _249
REMARK   88  A    between atoms: _255  and  _257
REMARK   89  A    between atoms: _257  and  _258
REMARK   90  A    between atoms: _260  and  _262
REMARK   91  A    between atoms: _262  and  _263
REMARK   92  A    between atoms: _262  and  _265
REMARK   93  A    between atoms: _268  and  _270
REMARK   94  A    between atoms: _270  and  _271
REMARK   95  A    between atoms: _270  and  _273
REMARK   96  A    between atoms: _273  and  _274
REMARK   97  A    between atoms: _277  and  _279
REMARK   98  A    between atoms: _279  and  _280
REMARK   99  A    between atoms: _283  and  _285
REMARK  100  A    between atoms: _285  and  _286
REMARK  101  A    between atoms: _285  and  _288
REMARK  102  A    between atoms: _291  and  _293
REMARK  103  A    between atoms: _293  and  _294
REMARK  104  A    between atoms: _293  and  _296
REMARK  105  A    between atoms: _296  and  _297
REMARK  106  A    between atoms: _300  and  _302
REMARK  107  A    between atoms: _302  and  _303
REMARK  108  A    between atoms: _305  and  _307
REMARK  109  A    between atoms: _307  and  _308
REMARK  110  A    between atoms: _310  and  _312
REMARK  111  A    between atoms: _312  and  _313
REMARK  112  A    between atoms: _312  and  _315
REMARK  113  A    between atoms: _315  and  _316
REMARK  114  A    between atoms: _318  and  _320
REMARK  115  A    between atoms: _320  and  _321
REMARK  116  A    between atoms: _320  and  _323
REMARK  117  A    between atoms: _323  and  _324
REMARK  118  A    between atoms: _327  and  _329
REMARK  119  A    between atoms: _329  and  _330
REMARK  120  A    between atoms: _329  and  _332
REMARK  121  A    between atoms: _332  and  _333
REMARK  122  A    between atoms: _336  and  _338
REMARK  123  A    between atoms: _338  and  _339
REMARK  124  A    between atoms: _338  and  _341
REMARK  125  A    between atoms: _341  and  _342
REMARK  126  A    between atoms: _346  and  _347
REMARK  127  A    between atoms: _353  and  _354
REMARK  128  A    between atoms: _359  and  _361
REMARK  129  A    between atoms: _361  and  _362
REMARK  130  A    between atoms: _361  and  _364
REMARK  131  A    between atoms: _364  and  _365
REMARK  132  A    between atoms: _368  and  _370
REMARK  133  A    between atoms: _370  and  _371
REMARK  134  A    between atoms: _370  and  _373
REMARK  135  A    between atoms: _373  and  _374
REMARK  136  A    between atoms: _377  and  _379
REMARK  137  A    between atoms: _379  and  _380
REMARK  138  A    between atoms: _379  and  _382
REMARK  139  A    between atoms: _384  and  _386
REMARK  140  A    between atoms: _386  and  _387
REMARK  141  A    between atoms: _386  and  _389
REMARK  142  A    between atoms: _392  and  _394
REMARK  143  A    between atoms: _394  and  _395
REMARK  144  A    between atoms: _394  and  _397
REMARK  145  A    between atoms: _397  and  _398
REMARK  146  A    between atoms: _408  and  _410
REMARK  147  A    between atoms: _410  and  _411
REMARK  148  A    between atoms: _410  and  _413
REMARK  149  A    between atoms: _413  and  _414
REMARK  150  A    between atoms: _419  and  _421
REMARK  151  A    between atoms: _421  and  _422
REMARK  152  A    between atoms: _421  and  _424
REMARK  153  A    between atoms: _424  and  _425
REMARK  154  A    between atoms: _425  and  _426
REMARK  155  A    between atoms: _426  and  _427
REMARK                            x       y       z     vdW  Elec       q    Type
REMARK                         _______ _______ _______ _____ _____    ______ ____
ROOT
ATOM      1  C   CYS A   1      15.032   8.451  24.104  0.00  0.00    +0.239 C 
ATOM      2  N   VAL A   2      14.960   7.132  24.255  0.00  0.00    -0.298 N 
ATOM      3  H   VAL A   2      15.781   6.609  24.622  0.00  0.00    +0.150 HD
ATOM      4  O   CYS A   1      14.026   9.167  23.993  0.00  0.00    -0.274 OA
ENDROOT
BRANCH   1   5
ATOM      5  CA  CYS A   1      16.404   9.080  24.047  0.00  0.00    +0.156 C 
BRANCH   5   6
ATOM      6  N   CYS A   1      17.484   8.101  24.160  0.00  0.00    -0.237 NA
ATOM      7  H   CYS A   1      17.510   7.299  23.499  0.00  0.00    +0.142 HD
ENDBRANCH   5   6
BRANCH   5   8
ATOM      8  CB  CYS A   1      16.411   9.803  22.695  0.00  0.00    +0.095 C 
ATOM      9  SG  CYS A   1      17.977  10.230  21.971  0.00  0.00    -0.080 S 
ENDBRANCH   5   8
ENDBRANCH   1   5
BRANCH   2  10
ATOM     10  CA  VAL A   2      13.740   6.412  23.910  0.00  0.00    +0.137 C 
BRANCH  10  11
ATOM     11  CB  VAL A   2      14.051   5.166  23.044  0.00  0.00    +0.026 C 
ATOM     12  CG2 VAL A   2      12.763   4.465  22.650  0.00  0.00    +0.002 C 
ATOM     13  CG1 VAL A   2      14.834   5.538  21.795  0.00  0.00    +0.002 C 
ENDBRANCH  10  11
BRANCH  10  14
ATOM     14  C   VAL A   2      12.947   5.948  25.124  0.00  0.00    +0.227 C 
ATOM     15  O   VAL A   2      13.504   5.294  26.016  0.00  0.00    -0.286 OA
ENDBRANCH  10  14
ENDBRANCH   2  10
TORSDOF 6
REMARK  Name = ../refined-set-2016/5byi/5byi_pocket.pdb
REMARK  155 active torsions:
REMARK  status: ('A' for Active; 'I' for Inactive)
REMARK    1  A    between atoms: _1  and  _3
REMARK    2  A    between atoms: _3  and  _4
REMARK    3  A    between atoms: _3  and  _6
REMARK    4  A    between atoms: _6  and  _7
REMARK    5  A    between atoms: _17  and  _19
REMARK    6  A    between atoms: _19  and  _20
REMARK    7  A    between atoms: _19  and  _22
REMARK    8  A    between atoms: _22  and  _23
REMARK    9  A    between atoms: _28  and  _29
REMARK   10  A    between atoms: _31  and  _33
REMARK   11  A    between atoms: _33  and  _34
REMARK   12  A    between atoms: _33  and  _36
REMARK   13  A    between atoms: _36  and  _37
REMARK   14  A    between atoms: _43  and  _45
REMARK   15  A    between atoms: _45  and  _46
REMARK   16  A    between atoms: _45  and  _48
REMARK   17  A    between atoms: _48  and  _49
REMARK   18  A    between atoms: _52  and  _53
REMARK   19  A    between atoms: _58  and  _60
REMARK   20  A    between atoms: _60  and  _61
REMARK   21  A    between atoms: _60  and  _63
REMARK   22  A    between atoms: _63  and  _64
REMARK   23  A    between atoms: _69  and  _71
REMARK   24  A    between atoms: _71  and  _72
REMARK   25  A    between atoms: _71  and  _74
REMARK   26  A    between atoms: _74  and  _75
REMARK   27  A    between atoms: _80  and  _82
REMARK   28  A    between atoms: _82  and  _83
REMARK   29  A    between atoms: _86  and  _88
REMARK   30  A    between atoms: _88  and  _89
REMARK   31  A    between atoms: _88  and  _91
REMARK   32  A    between atoms: _91  and  _92
REMARK   33  A    between atoms: _97  and  _99
REMARK   34  A    between atoms: _99  and  _100
REMARK   35  A    between atoms: _99  and  _102
REMARK   36  A    between atoms: _102  and  _103
REMARK   37  A    between atoms: _106  and  _108
REMARK   38  A    between atoms: _108  and  _109
REMARK   39  A    between atoms: _108  and  _111
REMARK   40  A    between atoms: _111  and  _112
REMARK   41  A    between atoms: _112  and  _113
REMARK   42  A    between atoms: _118  and  _120
REMARK   43  A    between atoms: _120  and  _121
REMARK   44  A    between atoms: _120  and  _123
REMARK   45  A    between atoms: _123  and  _124
REMARK   46  A    between atoms: _130  and  _132
REMARK   47  A    between atoms: _143  and  _146
REMARK   48  A    between atoms: _146  and  _147
REMARK   49  A    between atoms: _155  and  _156
REMARK   50  A    between atoms: _164  and  _166
REMARK   51  A    between atoms: _166  and  _167
REMARK   52  A    between atoms: _166  and  _169
REMARK   53  A    between atoms: _169  and  _170
REMARK   54  A    between atoms: _170  and  _171
REMARK   55  A    between atoms: _174  and  _176
REMARK   56  A    between atoms: _176  and  _177
REMARK   57  A    between atoms: _176  and  _179
REMARK   58  A    between atoms: _179  and  _180
REMARK   59  A    between atoms: _185  and  _187
REMARK   60  A    between atoms: _187  and  _188
REMARK   61  A    between atoms: _187  and  _190
REMARK   62  A    between atoms: _190  and  _191
REMARK   63  A    between atoms: _191  and  _192
REMARK   64  A    between atoms: _195  and  _197
REMARK   65  A    between atoms: _197  and  _198
REMARK   66  A    between atoms: _197  and  _200
REMARK   67  A    between atoms: _200  and  _201
REMARK   68  A    between atoms: _204  and  _206
REMARK   69  A    between atoms: _206  and  _207
REMARK   70  A    between atoms: _206  and  _209
REMARK   71  A    between atoms: _209  and  _210
REMARK   72  A    between atoms: _211  and  ZN_436
REMARK   73  A    between atoms: _215  and  _217
REMARK   74  A    between atoms: _217  and  _218
REMARK   75  A    between atoms: _217  and  _220
REMARK   76  A    between atoms: _220  and  _221
REMARK   77  A    between atoms: _224  and  _226
REMARK   78  A    between atoms: _226  and  _227
REMARK   79  A    between atoms: _226  and  _229
REMARK   80  A    between atoms: _232  and  _234
REMARK   81  A    between atoms: _234  and  _235
REMARK   82  A    between atoms: _234  and  _237
REMARK   83  A    between atoms: _237  and  _238
REMARK   84  A    between atoms: _243  and  _245
REMARK   85  A    between atoms: _245  and  _246
REMARK   86  A    between atoms: _245  and  _248
REMARK   87  A    between atoms: _248  and  _249
REMARK   88  A    between atoms: _255  and  _257
REMARK   89  A    between atoms: _257  and  _258
REMARK   90  A    between atoms: _260  and  _262
REMARK   91  A    between atoms: _262  and  _263
REMARK   92  A    between atoms: _262  and  _265
REMARK   93  A    between atoms: _268  and  _270
REMARK   94  A    between atoms: _270  and  _271
REMARK   95  A    between atoms: _270  and  _273
REMARK   96  A    between atoms: _273  and  _274
REMARK   97  A    between atoms: _277  and  _279
REMARK   98  A    between atoms: _279  and  _280
REMARK   99  A    between atoms: _283  and  _285
REMARK  100  A    between atoms: _285  and  _286
REMARK  101  A    between atoms: _285  and  _288
REMARK  102  A    between atoms: _291  and  _293
REMARK  103  A    between atoms: _293  and  _294
REMARK  104  A    between atoms: _293  and  _296
REMARK  105  A    between atoms: _296  and  _297
REMARK  106  A    between atoms: _300  and  _302
REMARK  107  A    between atoms: _302  and  _303
REMARK  108  A    between atoms: _305  and  _307
REMARK  109  A    between atoms: _307  and  _308
REMARK  110  A    between atoms: _310  and  _312
REMARK  111  A    between atoms: _312  and  _313
REMARK  112  A    between atoms: _312  and  _315
REMARK  113  A    between atoms: _315  and  _316
REMARK  114  A    between atoms: _318  and  _320
REMARK  115  A    between atoms: _320  and  _321
REMARK  116  A    between atoms: _320  and  _323
REMARK  117  A    between atoms: _323  and  _324
REMARK  118  A    between atoms: _327  and  _329
REMARK  119  A    between atoms: _329  and  _330
REMARK  120  A    between atoms: _329  and  _332
REMARK  121  A    between atoms: _332  and  _333
REMARK  122  A    between atoms: _336  and  _338
REMARK  123  A    between atoms: _338  and  _339
REMARK  124  A    between atoms: _338  and  _341
REMARK  125  A    between atoms: _341  and  _342
REMARK  126  A    between atoms: _346  and  _347
REMARK  127  A    between atoms: _353  and  _354
REMARK  128  A    between atoms: _359  and  _361
REMARK  129  A    between atoms: _361  and  _362
REMARK  130  A    between atoms: _361  and  _364
REMARK  131  A    between atoms: _364  and  _365
REMARK  132  A    between atoms: _368  and  _370
REMARK  133  A    between atoms: _370  and  _371
REMARK  134  A    between atoms: _370  and  _373
REMARK  135  A    between atoms: _373  and  _374
REMARK  136  A    between atoms: _377  and  _379
REMARK  137  A    between atoms: _379  and  _380
REMARK  138  A    between atoms: _379  and  _382
REMARK  139  A    between atoms: _384  and  _386
REMARK  140  A    between atoms: _386  and  _387
REMARK  141  A    between atoms: _386  and  _389
REMARK  142  A    between atoms: _392  and  _394
REMARK  143  A    between atoms: _394  and  _395
REMARK  144  A    between atoms: _394  and  _397
REMARK  145  A    between atoms: _397  and  _398
REMARK  146  A    between atoms: _408  and  _410
REMARK  147  A    between atoms: _410  and  _411
REMARK  148  A    between atoms: _410  and  _413
REMARK  149  A    between atoms: _413  and  _414
REMARK  150  A    between atoms: _419  and  _421
REMARK  151  A    between atoms: _421  and  _422
REMARK  152  A    between atoms: _421  and  _424
REMARK  153  A    between atoms: _424  and  _425
REMARK  154  A    between atoms: _425  and  _426
REMARK  155  A    between atoms: _426  and  _427
REMARK                            x       y       z     vdW  Elec       q    Type
REMARK                         _______ _______ _______ _____ _____    ______ ____
ROOT
ATOM      1  CG  TRP A   1      12.267   0.930  24.113  0.00  0.00    -0.002 A 
ATOM      2  CD1 TRP A   1      13.492   1.508  24.306  0.00  0.00    +0.068 A 
ATOM      3  NE1 TRP A   1      14.203   1.492  23.126  0.00  0.00    -0.352 N 
ATOM      4  HE1 TRP A   1      15.157   1.883  22.992  0.00  0.00    +0.166 HD
ATOM      5  CE2 TRP A   1      13.451   0.878  22.154  0.00  0.00    +0.056 A 
ATOM      6  CZ2 TRP A   1      13.742   0.604  20.807  0.00  0.00    +0.017 A 
ATOM      7  CH2 TRP A   1      12.775  -0.040  20.081  0.00  0.00    +0.001 A 
ATOM      8  CZ3 TRP A   1      11.560  -0.421  20.653  0.00  0.00    +0.000 A 
ATOM      9  CE3 TRP A   1      11.266  -0.142  21.961  0.00  0.00    +0.001 A 
ATOM     10  CD2 TRP A   1      12.224   0.519  22.740  0.00  0.00    +0.013 A 
ENDROOT
BRANCH   1  11
ATOM     11  CB  TRP A   1      11.162   0.815  25.083  0.00  0.00    +0.053 C 
BRANCH  11  12
ATOM     12  CA  TRP A   1      10.144   1.959  24.873  0.00  0.00    +0.137 C 
BRANCH  12  13
ATOM     13  N   TRP A   1      10.579   3.155  25.576  0.00  0.00    -0.239 NA
ATOM     14  H   TRP A   1      11.189   3.060  26.413  0.00  0.00    +0.142 HD
ENDBRANCH  12  13
BRANCH  12  15
ATOM     15  C   TRP A   1       8.786   1.534  25.377  0.00  0.00    +0.224 C 
ATOM     16  O   TRP A   1       8.555   1.472  26.598  0.00  0.00    -0.287 OA
ENDBRANCH  12  15
ENDBRANCH  11  12
ENDBRANCH   1  11
TORSDOF 4
REMARK  Name = ../refined-set-2016/5byi/5byi_pocket.pdb
REMARK  155 active torsions:
REMARK  status: ('A' for Active; 'I' for Inactive)
REMARK    1  A    between atoms: _1  and  _3
REMARK    2  A    between atoms: _3  and  _4
REMARK    3  A    between atoms: _3  and  _6
REMARK    4  A    between atoms: _6  and  _7
REMARK    5  A    between atoms: _17  and  _19
REMARK    6  A    between atoms: _19  and  _20
REMARK    7  A    between atoms: _19  and  _22
REMARK    8  A    between atoms: _22  and  _23
REMARK    9  A    between atoms: _28  and  _29
REMARK   10  A    between atoms: _31  and  _33
REMARK   11  A    between atoms: _33  and  _34
REMARK   12  A    between atoms: _33  and  _36
REMARK   13  A    between atoms: _36  and  _37
REMARK   14  A    between atoms: _43  and  _45
REMARK   15  A    between atoms: _45  and  _46
REMARK   16  A    between atoms: _45  and  _48
REMARK   17  A    between atoms: _48  and  _49
REMARK   18  A    between atoms: _52  and  _53
REMARK   19  A    between atoms: _58  and  _60
REMARK   20  A    between atoms: _60  and  _61
REMARK   21  A    between atoms: _60  and  _63
REMARK   22  A    between atoms: _63  and  _64
REMARK   23  A    between atoms: _69  and  _71
REMARK   24  A    between atoms: _71  and  _72
REMARK   25  A    between atoms: _71  and  _74
REMARK   26  A    between atoms: _74  and  _75
REMARK   27  A    between atoms: _80  and  _82
REMARK   28  A    between atoms: _82  and  _83
REMARK   29  A    between atoms: _86  and  _88
REMARK   30  A    between atoms: _88  and  _89
REMARK   31  A    between atoms: _88  and  _91
REMARK   32  A    between atoms: _91  and  _92
REMARK   33  A    between atoms: _97  and  _99
REMARK   34  A    between atoms: _99  and  _100
REMARK   35  A    between atoms: _99  and  _102
REMARK   36  A    between atoms: _102  and  _103
REMARK   37  A    between atoms: _106  and  _108
REMARK   38  A    between atoms: _108  and  _109
REMARK   39  A    between atoms: _108  and  _111
REMARK   40  A    between atoms: _111  and  _112
REMARK   41  A    between atoms: _112  and  _113
REMARK   42  A    between atoms: _118  and  _120
REMARK   43  A    between atoms: _120  and  _121
REMARK   44  A    between atoms: _120  and  _123
REMARK   45  A    between atoms: _123  and  _124
REMARK   46  A    between atoms: _130  and  _132
REMARK   47  A    between atoms: _143  and  _146
REMARK   48  A    between atoms: _146  and  _147
REMARK   49  A    between atoms: _155  and  _156
REMARK   50  A    between atoms: _164  and  _166
REMARK   51  A    between atoms: _166  and  _167
REMARK   52  A    between atoms: _166  and  _169
REMARK   53  A    between atoms: _169  and  _170
REMARK   54  A    between atoms: _170  and  _171
REMARK   55  A    between atoms: _174  and  _176
REMARK   56  A    between atoms: _176  and  _177
REMARK   57  A    between atoms: _176  and  _179
REMARK   58  A    between atoms: _179  and  _180
REMARK   59  A    between atoms: _185  and  _187
REMARK   60  A    between atoms: _187  and  _188
REMARK   61  A    between atoms: _187  and  _190
REMARK   62  A    between atoms: _190  and  _191
REMARK   63  A    between atoms: _191  and  _192
REMARK   64  A    between atoms: _195  and  _197
REMARK   65  A    between atoms: _197  and  _198
REMARK   66  A    between atoms: _197  and  _200
REMARK   67  A    between atoms: _200  and  _201
REMARK   68  A    between atoms: _204  and  _206
REMARK   69  A    between atoms: _206  and  _207
REMARK   70  A    between atoms: _206  and  _209
REMARK   71  A    between atoms: _209  and  _210
REMARK   72  A    between atoms: _211  and  ZN_436
REMARK   73  A    between atoms: _215  and  _217
REMARK   74  A    between atoms: _217  and  _218
REMARK   75  A    between atoms: _217  and  _220
REMARK   76  A    between atoms: _220  and  _221
REMARK   77  A    between atoms: _224  and  _226
REMARK   78  A    between atoms: _226  and  _227
REMARK   79  A    between atoms: _226  and  _229
REMARK   80  A    between atoms: _232  and  _234
REMARK   81  A    between atoms: _234  and  _235
REMARK   82  A    between atoms: _234  and  _237
REMARK   83  A    between atoms: _237  and  _238
REMARK   84  A    between atoms: _243  and  _245
REMARK   85  A    between atoms: _245  and  _246
REMARK   86  A    between atoms: _245  and  _248
REMARK   87  A    between atoms: _248  and  _249
REMARK   88  A    between atoms: _255  and  _257
REMARK   89  A    between atoms: _257  and  _258
REMARK   90  A    between atoms: _260  and  _262
REMARK   91  A    between atoms: _262  and  _263
REMARK   92  A    between atoms: _262  and  _265
REMARK   93  A    between atoms: _268  and  _270
REMARK   94  A    between atoms: _270  and  _271
REMARK   95  A    between atoms: _270  and  _273
REMARK   96  A    between atoms: _273  and  _274
REMARK   97  A    between atoms: _277  and  _279
REMARK   98  A    between atoms: _279  and  _280
REMARK   99  A    between atoms: _283  and  _285
REMARK  100  A    between atoms: _285  and  _286
REMARK  101  A    between atoms: _285  and  _288
REMARK  102  A    between atoms: _291  and  _293
REMARK  103  A    between atoms: _293  and  _294
REMARK  104  A    between atoms: _293  and  _296
REMARK  105  A    between atoms: _296  and  _297
REMARK  106  A    between atoms: _300  and  _302
REMARK  107  A    between atoms: _302  and  _303
REMARK  108  A    between atoms: _305  and  _307
REMARK  109  A    between atoms: _307  and  _308
REMARK  110  A    between atoms: _310  and  _312
REMARK  111  A    between atoms: _312  and  _313
REMARK  112  A    between atoms: _312  and  _315
REMARK  113  A    between atoms: _315  and  _316
REMARK  114  A    between atoms: _318  and  _320
REMARK  115  A    between atoms: _320  and  _321
REMARK  116  A    between atoms: _320  and  _323
REMARK  117  A    between atoms: _323  and  _324
REMARK  118  A    between atoms: _327  and  _329
REMARK  119  A    between atoms: _329  and  _330
REMARK  120  A    between atoms: _329  and  _332
REMARK  121  A    between atoms: _332  and  _333
REMARK  122  A    between atoms: _336  and  _338
REMARK  123  A    between atoms: _338  and  _339
REMARK  124  A    between atoms: _338  and  _341
REMARK  125  A    between atoms: _341  and  _342
REMARK  126  A    between atoms: _346  and  _347
REMARK  127  A    between atoms: _353  and  _354
REMARK  128  A    between atoms: _359  and  _361
REMARK  129  A    between atoms: _361  and  _362
REMARK  130  A    between atoms: _361  and  _364
REMARK  131  A    between atoms: _364  and  _365
REMARK  132  A    between atoms: _368  and  _370
REMARK  133  A    between atoms: _370  and  _371
REMARK  134  A    between atoms: _370  and  _373
REMARK  135  A    between atoms: _373  and  _374
REMARK  136  A    between atoms: _377  and  _379
REMARK  137  A    between atoms: _379  and  _380
REMARK  138  A    between atoms: _379  and  _382
REMARK  139  A    between atoms: _384  and  _386
REMARK  140  A    between atoms: _386  and  _387
REMARK  141  A    between atoms: _386  and  _389
REMARK  142  A    between atoms: _392  and  _394
REMARK  143  A    between atoms: _394  and  _395
REMARK  144  A    between atoms: _394  and  _397
REMARK  145  A    between atoms: _397  and  _398
REMARK  146  A    between atoms: _408  and  _410
REMARK  147  A    between atoms: _410  and  _411
REMARK  148  A    between atoms: _410  and  _413
REMARK  149  A    between atoms: _413  and  _414
REMARK  150  A    between atoms: _419  and  _421
REMARK  151  A    between atoms: _421  and  _422
REMARK  152  A    between atoms: _421  and  _424
REMARK  153  A    between atoms: _424  and  _425
REMARK  154  A    between atoms: _425  and  _426
REMARK  155  A    between atoms: _426  and  _427
REMARK                            x       y       z     vdW  Elec       q    Type
REMARK                         _______ _______ _______ _____ _____    ______ ____
ROOT
ATOM      1  CB  ASN A   1      19.031  -6.553  10.414  0.00  0.00    +0.110 C 
ENDROOT
BRANCH   1   2
ATOM      2  CG  ASN A   1      17.533  -6.702  10.195  0.00  0.00    +0.221 C 
ATOM      3  OD1 ASN A   1      16.885  -7.590  10.744  0.00  0.00    -0.275 OA
ATOM      4  ND2 ASN A   1      16.974  -5.814   9.384  0.00  0.00    -0.329 N 
ATOM      5 HD21 ASN A   1      15.952  -5.854   9.194  0.00  0.00    +0.145 HD
ATOM      6 HD22 ASN A   1      17.557  -5.077   8.938  0.00  0.00    +0.145 HD
ENDBRANCH   1   2
BRANCH   1   7
ATOM      7  CA  ASN A   1      19.547  -7.413  11.568  0.00  0.00    +0.142 C 
BRANCH   7   8
ATOM      8  N   ASN A   1      19.259  -8.831  11.335  0.00  0.00    -0.239 NA
ATOM      9  H   ASN A   1      18.351  -9.096  10.904  0.00  0.00    +0.142 HD
ENDBRANCH   7   8
BRANCH   7  10
ATOM     10  C   ASN A   1      18.985  -6.939  12.915  0.00  0.00    +0.225 C 
ATOM     11  O   ASN A   1      18.357  -5.893  13.009  0.00  0.00    -0.287 OA
ENDBRANCH   7  10
ENDBRANCH   1   7
TORSDOF 4
REMARK  Name = ../refined-set-2016/5byi/5byi_pocket.pdb
REMARK  155 active torsions:
REMARK  status: ('A' for Active; 'I' for Inactive)
REMARK    1  A    between atoms: _1  and  _3
REMARK    2  A    between atoms: _3  and  _4
REMARK    3  A    between atoms: _3  and  _6
REMARK    4  A    between atoms: _6  and  _7
REMARK    5  A    between atoms: _17  and  _19
REMARK    6  A    between atoms: _19  and  _20
REMARK    7  A    between atoms: _19  and  _22
REMARK    8  A    between atoms: _22  and  _23
REMARK    9  A    between atoms: _28  and  _29
REMARK   10  A    between atoms: _31  and  _33
REMARK   11  A    between atoms: _33  and  _34
REMARK   12  A    between atoms: _33  and  _36
REMARK   13  A    between atoms: _36  and  _37
REMARK   14  A    between atoms: _43  and  _45
REMARK   15  A    between atoms: _45  and  _46
REMARK   16  A    between atoms: _45  and  _48
REMARK   17  A    between atoms: _48  and  _49
REMARK   18  A    between atoms: _52  and  _53
REMARK   19  A    between atoms: _58  and  _60
REMARK   20  A    between atoms: _60  and  _61
REMARK   21  A    between atoms: _60  and  _63
REMARK   22  A    between atoms: _63  and  _64
REMARK   23  A    between atoms: _69  and  _71
REMARK   24  A    between atoms: _71  and  _72
REMARK   25  A    between atoms: _71  and  _74
REMARK   26  A    between atoms: _74  and  _75
REMARK   27  A    between atoms: _80  and  _82
REMARK   28  A    between atoms: _82  and  _83
REMARK   29  A    between atoms: _86  and  _88
REMARK   30  A    between atoms: _88  and  _89
REMARK   31  A    between atoms: _88  and  _91
REMARK   32  A    between atoms: _91  and  _92
REMARK   33  A    between atoms: _97  and  _99
REMARK   34  A    between atoms: _99  and  _100
REMARK   35  A    between atoms: _99  and  _102
REMARK   36  A    between atoms: _102  and  _103
REMARK   37  A    between atoms: _106  and  _108
REMARK   38  A    between atoms: _108  and  _109
REMARK   39  A    between atoms: _108  and  _111
REMARK   40  A    between atoms: _111  and  _112
REMARK   41  A    between atoms: _112  and  _113
REMARK   42  A    between atoms: _118  and  _120
REMARK   43  A    between atoms: _120  and  _121
REMARK   44  A    between atoms: _120  and  _123
REMARK   45  A    between atoms: _123  and  _124
REMARK   46  A    between atoms: _130  and  _132
REMARK   47  A    between atoms: _143  and  _146
REMARK   48  A    between atoms: _146  and  _147
REMARK   49  A    between atoms: _155  and  _156
REMARK   50  A    between atoms: _164  and  _166
REMARK   51  A    between atoms: _166  and  _167
REMARK   52  A    between atoms: _166  and  _169
REMARK   53  A    between atoms: _169  and  _170
REMARK   54  A    between atoms: _170  and  _171
REMARK   55  A    between atoms: _174  and  _176
REMARK   56  A    between atoms: _176  and  _177
REMARK   57  A    between atoms: _176  and  _179
REMARK   58  A    between atoms: _179  and  _180
REMARK   59  A    between atoms: _185  and  _187
REMARK   60  A    between atoms: _187  and  _188
REMARK   61  A    between atoms: _187  and  _190
REMARK   62  A    between atoms: _190  and  _191
REMARK   63  A    between atoms: _191  and  _192
REMARK   64  A    between atoms: _195  and  _197
REMARK   65  A    between atoms: _197  and  _198
REMARK   66  A    between atoms: _197  and  _200
REMARK   67  A    between atoms: _200  and  _201
REMARK   68  A    between atoms: _204  and  _206
REMARK   69  A    between atoms: _206  and  _207
REMARK   70  A    between atoms: _206  and  _209
REMARK   71  A    between atoms: _209  and  _210
REMARK   72  A    between atoms: _211  and  ZN_436
REMARK   73  A    between atoms: _215  and  _217
REMARK   74  A    between atoms: _217  and  _218
REMARK   75  A    between atoms: _217  and  _220
REMARK   76  A    between atoms: _220  and  _221
REMARK   77  A    between atoms: _224  and  _226
REMARK   78  A    between atoms: _226  and  _227
REMARK   79  A    between atoms: _226  and  _229
REMARK   80  A    between atoms: _232  and  _234
REMARK   81  A    between atoms: _234  and  _235
REMARK   82  A    between atoms: _234  and  _237
REMARK   83  A    between atoms: _237  and  _238
REMARK   84  A    between atoms: _243  and  _245
REMARK   85  A    between atoms: _245  and  _246
REMARK   86  A    between atoms: _245  and  _248
REMARK   87  A    between atoms: _248  and  _249
REMARK   88  A    between atoms: _255  and  _257
REMARK   89  A    between atoms: _257  and  _258
REMARK   90  A    between atoms: _260  and  _262
REMARK   91  A    between atoms: _262  and  _263
REMARK   92  A    between atoms: _262  and  _265
REMARK   93  A    between atoms: _268  and  _270
REMARK   94  A    between atoms: _270  and  _271
REMARK   95  A    between atoms: _270  and  _273
REMARK   96  A    between atoms: _273  and  _274
REMARK   97  A    between atoms: _277  and  _279
REMARK   98  A    between atoms: _279  and  _280
REMARK   99  A    between atoms: _283  and  _285
REMARK  100  A    between atoms: _285  and  _286
REMARK  101  A    between atoms: _285  and  _288
REMARK  102  A    between atoms: _291  and  _293
REMARK  103  A    between atoms: _293  and  _294
REMARK  104  A    between atoms: _293  and  _296
REMARK  105  A    between atoms: _296  and  _297
REMARK  106  A    between atoms: _300  and  _302
REMARK  107  A    between atoms: _302  and  _303
REMARK  108  A    between atoms: _305  and  _307
REMARK  109  A    between atoms: _307  and  _308
REMARK  110  A    between atoms: _310  and  _312
REMARK  111  A    between atoms: _312  and  _313
REMARK  112  A    between atoms: _312  and  _315
REMARK  113  A    between atoms: _315  and  _316
REMARK  114  A    between atoms: _318  and  _320
REMARK  115  A    between atoms: _320  and  _321
REMARK  116  A    between atoms: _320  and  _323
REMARK  117  A    between atoms: _323  and  _324
REMARK  118  A    between atoms: _327  and  _329
REMARK  119  A    between atoms: _329  and  _330
REMARK  120  A    between atoms: _329  and  _332
REMARK  121  A    between atoms: _332  and  _333
REMARK  122  A    between atoms: _336  and  _338
REMARK  123  A    between atoms: _338  and  _339
REMARK  124  A    between atoms: _338  and  _341
REMARK  125  A    between atoms: _341  and  _342
REMARK  126  A    between atoms: _346  and  _347
REMARK  127  A    between atoms: _353  and  _354
REMARK  128  A    between atoms: _359  and  _361
REMARK  129  A    between atoms: _361  and  _362
REMARK  130  A    between atoms: _361  and  _364
REMARK  131  A    between atoms: _364  and  _365
REMARK  132  A    between atoms: _368  and  _370
REMARK  133  A    between atoms: _370  and  _371
REMARK  134  A    between atoms: _370  and  _373
REMARK  135  A    between atoms: _373  and  _374
REMARK  136  A    between atoms: _377  and  _379
REMARK  137  A    between atoms: _379  and  _380
REMARK  138  A    between atoms: _379  and  _382
REMARK  139  A    between atoms: _384  and  _386
REMARK  140  A    between atoms: _386  and  _387
REMARK  141  A    between atoms: _386  and  _389
REMARK  142  A    between atoms: _392  and  _394
REMARK  143  A    between atoms: _394  and  _395
REMARK  144  A    between atoms: _394  and  _397
REMARK  145  A    between atoms: _397  and  _398
REMARK  146  A    between atoms: _408  and  _410
REMARK  147  A    between atoms: _410  and  _411
REMARK  148  A    between atoms: _410  and  _413
REMARK  149  A    between atoms: _413  and  _414
REMARK  150  A    between atoms: _419  and  _421
REMARK  151  A    between atoms: _421  and  _422
REMARK  152  A    between atoms: _421  and  _424
REMARK  153  A    between atoms: _424  and  _425
REMARK  154  A    between atoms: _425  and  _426
REMARK  155  A    between atoms: _426  and  _427
REMARK                            x       y       z     vdW  Elec       q    Type
REMARK                         _______ _______ _______ _____ _____    ______ ____
ROOT
ATOM      1  NE  ARG A   1      23.251  -2.890  21.052  0.00  0.00    -0.265 N 
ATOM      2  CZ  ARG A   1      23.437  -1.864  21.877  0.00  0.00    +0.342 C 
ATOM      3  NH2 ARG A   1      24.662  -1.619  22.333  0.00  0.00    -0.292 N 
ATOM      4 HH21 ARG A   1      24.826  -0.821  22.979  0.00  0.00    +0.255 HD
ATOM      5 HH22 ARG A   1      25.456  -2.226  22.043  0.00  0.00    +0.255 HD
ATOM      6  NH1 ARG A   1      22.439  -1.099  22.254  0.00  0.00    -0.292 N 
ATOM      7 HH11 ARG A   1      22.610  -0.302  22.900  0.00  0.00    +0.255 HD
ATOM      8 HH12 ARG A   1      21.478  -1.290  21.906  0.00  0.00    +0.255 HD
ATOM      9  HE  ARG A   1      24.074  -3.494  20.854  0.00  0.00    +0.259 HD
ENDROOT
BRANCH   1  10
ATOM     10  CD  ARG A   1      22.003  -3.241  20.405  0.00  0.00    +0.174 C 
BRANCH  10  11
ATOM     11  CG  ARG A   1      22.078  -4.608  19.766  0.00  0.00    +0.045 C 
BRANCH  11  12
ATOM     12  CB  ARG A   1      20.966  -4.861  18.756  0.00  0.00    +0.029 C 
BRANCH  12  13
ATOM     13  CA  ARG A   1      20.884  -6.316  18.286  0.00  0.00    +0.133 C 
BRANCH  13  14
ATOM     14  N   ARG A   1      19.934  -6.438  17.182  0.00  0.00    -0.239 NA
ATOM     15  H   ARG A   1      19.145  -5.762  17.131  0.00  0.00    +0.142 HD
ENDBRANCH  13  14
BRANCH  13  16
ATOM     16  C   ARG A   1      20.395  -7.211  19.421  0.00  0.00    +0.224 C 
ATOM     17  O   ARG A   1      19.201  -7.206  19.723  0.00  0.00    -0.287 OA
ENDBRANCH  13  16
ENDBRANCH  12  13
ENDBRANCH  11  12
ENDBRANCH  10  11
ENDBRANCH   1  10
TORSDOF 6
REMARK  Name = ../refined-set-2016/5byi/5byi_pocket.pdb
REMARK  155 active torsions:
REMARK  status: ('A' for Active; 'I' for Inactive)
REMARK    1  A    between atoms: _1  and  _3
REMARK    2  A    between atoms: _3  and  _4
REMARK    3  A    between atoms: _3  and  _6
REMARK    4  A    between atoms: _6  and  _7
REMARK    5  A    between atoms: _17  and  _19
REMARK    6  A    between atoms: _19  and  _20
REMARK    7  A    between atoms: _19  and  _22
REMARK    8  A    between atoms: _22  and  _23
REMARK    9  A    between atoms: _28  and  _29
REMARK   10  A    between atoms: _31  and  _33
REMARK   11  A    between atoms: _33  and  _34
REMARK   12  A    between atoms: _33  and  _36
REMARK   13  A    between atoms: _36  and  _37
REMARK   14  A    between atoms: _43  and  _45
REMARK   15  A    between atoms: _45  and  _46
REMARK   16  A    between atoms: _45  and  _48
REMARK   17  A    between atoms: _48  and  _49
REMARK   18  A    between atoms: _52  and  _53
REMARK   19  A    between atoms: _58  and  _60
REMARK   20  A    between atoms: _60  and  _61
REMARK   21  A    between atoms: _60  and  _63
REMARK   22  A    between atoms: _63  and  _64
REMARK   23  A    between atoms: _69  and  _71
REMARK   24  A    between atoms: _71  and  _72
REMARK   25  A    between atoms: _71  and  _74
REMARK   26  A    between atoms: _74  and  _75
REMARK   27  A    between atoms: _80  and  _82
REMARK   28  A    between atoms: _82  and  _83
REMARK   29  A    between atoms: _86  and  _88
REMARK   30  A    between atoms: _88  and  _89
REMARK   31  A    between atoms: _88  and  _91
REMARK   32  A    between atoms: _91  and  _92
REMARK   33  A    between atoms: _97  and  _99
REMARK   34  A    between atoms: _99  and  _100
REMARK   35  A    between atoms: _99  and  _102
REMARK   36  A    between atoms: _102  and  _103
REMARK   37  A    between atoms: _106  and  _108
REMARK   38  A    between atoms: _108  and  _109
REMARK   39  A    between atoms: _108  and  _111
REMARK   40  A    between atoms: _111  and  _112
REMARK   41  A    between atoms: _112  and  _113
REMARK   42  A    between atoms: _118  and  _120
REMARK   43  A    between atoms: _120  and  _121
REMARK   44  A    between atoms: _120  and  _123
REMARK   45  A    between atoms: _123  and  _124
REMARK   46  A    between atoms: _130  and  _132
REMARK   47  A    between atoms: _143  and  _146
REMARK   48  A    between atoms: _146  and  _147
REMARK   49  A    between atoms: _155  and  _156
REMARK   50  A    between atoms: _164  and  _166
REMARK   51  A    between atoms: _166  and  _167
REMARK   52  A    between atoms: _166  and  _169
REMARK   53  A    between atoms: _169  and  _170
REMARK   54  A    between atoms: _170  and  _171
REMARK   55  A    between atoms: _174  and  _176
REMARK   56  A    between atoms: _176  and  _177
REMARK   57  A    between atoms: _176  and  _179
REMARK   58  A    between atoms: _179  and  _180
REMARK   59  A    between atoms: _185  and  _187
REMARK   60  A    between atoms: _187  and  _188
REMARK   61  A    between atoms: _187  and  _190
REMARK   62  A    between atoms: _190  and  _191
REMARK   63  A    between atoms: _191  and  _192
REMARK   64  A    between atoms: _195  and  _197
REMARK   65  A    between atoms: _197  and  _198
REMARK   66  A    between atoms: _197  and  _200
REMARK   67  A    between atoms: _200  and  _201
REMARK   68  A    between atoms: _204  and  _206
REMARK   69  A    between atoms: _206  and  _207
REMARK   70  A    between atoms: _206  and  _209
REMARK   71  A    between atoms: _209  and  _210
REMARK   72  A    between atoms: _211  and  ZN_436
REMARK   73  A    between atoms: _215  and  _217
REMARK   74  A    between atoms: _217  and  _218
REMARK   75  A    between atoms: _217  and  _220
REMARK   76  A    between atoms: _220  and  _221
REMARK   77  A    between atoms: _224  and  _226
REMARK   78  A    between atoms: _226  and  _227
REMARK   79  A    between atoms: _226  and  _229
REMARK   80  A    between atoms: _232  and  _234
REMARK   81  A    between atoms: _234  and  _235
REMARK   82  A    between atoms: _234  and  _237
REMARK   83  A    between atoms: _237  and  _238
REMARK   84  A    between atoms: _243  and  _245
REMARK   85  A    between atoms: _245  and  _246
REMARK   86  A    between atoms: _245  and  _248
REMARK   87  A    between atoms: _248  and  _249
REMARK   88  A    between atoms: _255  and  _257
REMARK   89  A    between atoms: _257  and  _258
REMARK   90  A    between atoms: _260  and  _262
REMARK   91  A    between atoms: _262  and  _263
REMARK   92  A    between atoms: _262  and  _265
REMARK   93  A    between atoms: _268  and  _270
REMARK   94  A    between atoms: _270  and  _271
REMARK   95  A    between atoms: _270  and  _273
REMARK   96  A    between atoms: _273  and  _274
REMARK   97  A    between atoms: _277  and  _279
REMARK   98  A    between atoms: _279  and  _280
REMARK   99  A    between atoms: _283  and  _285
REMARK  100  A    between atoms: _285  and  _286
REMARK  101  A    between atoms: _285  and  _288
REMARK  102  A    between atoms: _291  and  _293
REMARK  103  A    between atoms: _293  and  _294
REMARK  104  A    between atoms: _293  and  _296
REMARK  105  A    between atoms: _296  and  _297
REMARK  106  A    between atoms: _300  and  _302
REMARK  107  A    between atoms: _302  and  _303
REMARK  108  A    between atoms: _305  and  _307
REMARK  109  A    between atoms: _307  and  _308
REMARK  110  A    between atoms: _310  and  _312
REMARK  111  A    between atoms: _312  and  _313
REMARK  112  A    between atoms: _312  and  _315
REMARK  113  A    between atoms: _315  and  _316
REMARK  114  A    between atoms: _318  and  _320
REMARK  115  A    between atoms: _320  and  _321
REMARK  116  A    between atoms: _320  and  _323
REMARK  117  A    between atoms: _323  and  _324
REMARK  118  A    between atoms: _327  and  _329
REMARK  119  A    between atoms: _329  and  _330
REMARK  120  A    between atoms: _329  and  _332
REMARK  121  A    between atoms: _332  and  _333
REMARK  122  A    between atoms: _336  and  _338
REMARK  123  A    between atoms: _338  and  _339
REMARK  124  A    between atoms: _338  and  _341
REMARK  125  A    between atoms: _341  and  _342
REMARK  126  A    between atoms: _346  and  _347
REMARK  127  A    between atoms: _353  and  _354
REMARK  128  A    between atoms: _359  and  _361
REMARK  129  A    between atoms: _361  and  _362
REMARK  130  A    between atoms: _361  and  _364
REMARK  131  A    between atoms: _364  and  _365
REMARK  132  A    between atoms: _368  and  _370
REMARK  133  A    between atoms: _370  and  _371
REMARK  134  A    between atoms: _370  and  _373
REMARK  135  A    between atoms: _373  and  _374
REMARK  136  A    between atoms: _377  and  _379
REMARK  137  A    between atoms: _379  and  _380
REMARK  138  A    between atoms: _379  and  _382
REMARK  139  A    between atoms: _384  and  _386
REMARK  140  A    between atoms: _386  and  _387
REMARK  141  A    between atoms: _386  and  _389
REMARK  142  A    between atoms: _392  and  _394
REMARK  143  A    between atoms: _394  and  _395
REMARK  144  A    between atoms: _394  and  _397
REMARK  145  A    between atoms: _397  and  _398
REMARK  146  A    between atoms: _408  and  _410
REMARK  147  A    between atoms: _410  and  _411
REMARK  148  A    between atoms: _410  and  _413
REMARK  149  A    between atoms: _413  and  _414
REMARK  150  A    between atoms: _419  and  _421
REMARK  151  A    between atoms: _421  and  _422
REMARK  152  A    between atoms: _421  and  _424
REMARK  153  A    between atoms: _424  and  _425
REMARK  154  A    between atoms: _425  and  _426
REMARK  155  A    between atoms: _426  and  _427
REMARK                            x       y       z     vdW  Elec       q    Type
REMARK                         _______ _______ _______ _____ _____    ______ ____
ROOT
ATOM      1  O   HOH     1      20.310   4.005  12.905  0.00  0.00    +0.000 OA
ENDROOT
TORSDOF 0
REMARK  Name = ../refined-set-2016/5byi/5byi_pocket.pdb
REMARK  155 active torsions:
REMARK  status: ('A' for Active; 'I' for Inactive)
REMARK    1  A    between atoms: _1  and  _3
REMARK    2  A    between atoms: _3  and  _4
REMARK    3  A    between atoms: _3  and  _6
REMARK    4  A    between atoms: _6  and  _7
REMARK    5  A    between atoms: _17  and  _19
REMARK    6  A    between atoms: _19  and  _20
REMARK    7  A    between atoms: _19  and  _22
REMARK    8  A    between atoms: _22  and  _23
REMARK    9  A    between atoms: _28  and  _29
REMARK   10  A    between atoms: _31  and  _33
REMARK   11  A    between atoms: _33  and  _34
REMARK   12  A    between atoms: _33  and  _36
REMARK   13  A    between atoms: _36  and  _37
REMARK   14  A    between atoms: _43  and  _45
REMARK   15  A    between atoms: _45  and  _46
REMARK   16  A    between atoms: _45  and  _48
REMARK   17  A    between atoms: _48  and  _49
REMARK   18  A    between atoms: _52  and  _53
REMARK   19  A    between atoms: _58  and  _60
REMARK   20  A    between atoms: _60  and  _61
REMARK   21  A    between atoms: _60  and  _63
REMARK   22  A    between atoms: _63  and  _64
REMARK   23  A    between atoms: _69  and  _71
REMARK   24  A    between atoms: _71  and  _72
REMARK   25  A    between atoms: _71  and  _74
REMARK   26  A    between atoms: _74  and  _75
REMARK   27  A    between atoms: _80  and  _82
REMARK   28  A    between atoms: _82  and  _83
REMARK   29  A    between atoms: _86  and  _88
REMARK   30  A    between atoms: _88  and  _89
REMARK   31  A    between atoms: _88  and  _91
REMARK   32  A    between atoms: _91  and  _92
REMARK   33  A    between atoms: _97  and  _99
REMARK   34  A    between atoms: _99  and  _100
REMARK   35  A    between atoms: _99  and  _102
REMARK   36  A    between atoms: _102  and  _103
REMARK   37  A    between atoms: _106  and  _108
REMARK   38  A    between atoms: _108  and  _109
REMARK   39  A    between atoms: _108  and  _111
REMARK   40  A    between atoms: _111  and  _112
REMARK   41  A    between atoms: _112  and  _113
REMARK   42  A    between atoms: _118  and  _120
REMARK   43  A    between atoms: _120  and  _121
REMARK   44  A    between atoms: _120  and  _123
REMARK   45  A    between atoms: _123  and  _124
REMARK   46  A    between atoms: _130  and  _132
REMARK   47  A    between atoms: _143  and  _146
REMARK   48  A    between atoms: _146  and  _147
REMARK   49  A    between atoms: _155  and  _156
REMARK   50  A    between atoms: _164  and  _166
REMARK   51  A    between atoms: _166  and  _167
REMARK   52  A    between atoms: _166  and  _169
REMARK   53  A    between atoms: _169  and  _170
REMARK   54  A    between atoms: _170  and  _171
REMARK   55  A    between atoms: _174  and  _176
REMARK   56  A    between atoms: _176  and  _177
REMARK   57  A    between atoms: _176  and  _179
REMARK   58  A    between atoms: _179  and  _180
REMARK   59  A    between atoms: _185  and  _187
REMARK   60  A    between atoms: _187  and  _188
REMARK   61  A    between atoms: _187  and  _190
REMARK   62  A    between atoms: _190  and  _191
REMARK   63  A    between atoms: _191  and  _192
REMARK   64  A    between atoms: _195  and  _197
REMARK   65  A    between atoms: _197  and  _198
REMARK   66  A    between atoms: _197  and  _200
REMARK   67  A    between atoms: _200  and  _201
REMARK   68  A    between atoms: _204  and  _206
REMARK   69  A    between atoms: _206  and  _207
REMARK   70  A    between atoms: _206  and  _209
REMARK   71  A    between atoms: _209  and  _210
REMARK   72  A    between atoms: _211  and  ZN_436
REMARK   73  A    between atoms: _215  and  _217
REMARK   74  A    between atoms: _217  and  _218
REMARK   75  A    between atoms: _217  and  _220
REMARK   76  A    between atoms: _220  and  _221
REMARK   77  A    between atoms: _224  and  _226
REMARK   78  A    between atoms: _226  and  _227
REMARK   79  A    between atoms: _226  and  _229
REMARK   80  A    between atoms: _232  and  _234
REMARK   81  A    between atoms: _234  and  _235
REMARK   82  A    between atoms: _234  and  _237
REMARK   83  A    between atoms: _237  and  _238
REMARK   84  A    between atoms: _243  and  _245
REMARK   85  A    between atoms: _245  and  _246
REMARK   86  A    between atoms: _245  and  _248
REMARK   87  A    between atoms: _248  and  _249
REMARK   88  A    between atoms: _255  and  _257
REMARK   89  A    between atoms: _257  and  _258
REMARK   90  A    between atoms: _260  and  _262
REMARK   91  A    between atoms: _262  and  _263
REMARK   92  A    between atoms: _262  and  _265
REMARK   93  A    between atoms: _268  and  _270
REMARK   94  A    between atoms: _270  and  _271
REMARK   95  A    between atoms: _270  and  _273
REMARK   96  A    between atoms: _273  and  _274
REMARK   97  A    between atoms: _277  and  _279
REMARK   98  A    between atoms: _279  and  _280
REMARK   99  A    between atoms: _283  and  _285
REMARK  100  A    between atoms: _285  and  _286
REMARK  101  A    between atoms: _285  and  _288
REMARK  102  A    between atoms: _291  and  _293
REMARK  103  A    between atoms: _293  and  _294
REMARK  104  A    between atoms: _293  and  _296
REMARK  105  A    between atoms: _296  and  _297
REMARK  106  A    between atoms: _300  and  _302
REMARK  107  A    between atoms: _302  and  _303
REMARK  108  A    between atoms: _305  and  _307
REMARK  109  A    between atoms: _307  and  _308
REMARK  110  A    between atoms: _310  and  _312
REMARK  111  A    between atoms: _312  and  _313
REMARK  112  A    between atoms: _312  and  _315
REMARK  113  A    between atoms: _315  and  _316
REMARK  114  A    between atoms: _318  and  _320
REMARK  115  A    between atoms: _320  and  _321
REMARK  116  A    between atoms: _320  and  _323
REMARK  117  A    between atoms: _323  and  _324
REMARK  118  A    between atoms: _327  and  _329
REMARK  119  A    between atoms: _329  and  _330
REMARK  120  A    between atoms: _329  and  _332
REMARK  121  A    between atoms: _332  and  _333
REMARK  122  A    between atoms: _336  and  _338
REMARK  123  A    between atoms: _338  and  _339
REMARK  124  A    between atoms: _338  and  _341
REMARK  125  A    between atoms: _341  and  _342
REMARK  126  A    between atoms: _346  and  _347
REMARK  127  A    between atoms: _353  and  _354
REMARK  128  A    between atoms: _359  and  _361
REMARK  129  A    between atoms: _361  and  _362
REMARK  130  A    between atoms: _361  and  _364
REMARK  131  A    between atoms: _364  and  _365
REMARK  132  A    between atoms: _368  and  _370
REMARK  133  A    between atoms: _370  and  _371
REMARK  134  A    between atoms: _370  and  _373
REMARK  135  A    between atoms: _373  and  _374
REMARK  136  A    between atoms: _377  and  _379
REMARK  137  A    between atoms: _379  and  _380
REMARK  138  A    between atoms: _379  and  _382
REMARK  139  A    between atoms: _384  and  _386
REMARK  140  A    between atoms: _386  and  _387
REMARK  141  A    between atoms: _386  and  _389
REMARK  142  A    between atoms: _392  and  _394
REMARK  143  A    between atoms: _394  and  _395
REMARK  144  A    between atoms: _394  and  _397
REMARK  145  A    between atoms: _397  and  _398
REMARK  146  A    between atoms: _408  and  _410
REMARK  147  A    between atoms: _410  and  _411
REMARK  148  A    between atoms: _410  and  _413
REMARK  149  A    between atoms: _413  and  _414
REMARK  150  A    between atoms: _419  and  _421
REMARK  151  A    between atoms: _421  and  _422
REMARK  152  A    between atoms: _421  and  _424
REMARK  153  A    between atoms: _424  and  _425
REMARK  154  A    between atoms: _425  and  _426
REMARK  155  A    between atoms: _426  and  _427
REMARK                            x       y       z     vdW  Elec       q    Type
REMARK                         _______ _______ _______ _____ _____    ______ ____
ROOT
ATOM      1  O   HOH     1      19.806  -3.293  15.732  0.00  0.00    +0.000 OA
ENDROOT
TORSDOF 0
REMARK  Name = ../refined-set-2016/5byi/5byi_pocket.pdb
REMARK  155 active torsions:
REMARK  status: ('A' for Active; 'I' for Inactive)
REMARK    1  A    between atoms: _1  and  _3
REMARK    2  A    between atoms: _3  and  _4
REMARK    3  A    between atoms: _3  and  _6
REMARK    4  A    between atoms: _6  and  _7
REMARK    5  A    between atoms: _17  and  _19
REMARK    6  A    between atoms: _19  and  _20
REMARK    7  A    between atoms: _19  and  _22
REMARK    8  A    between atoms: _22  and  _23
REMARK    9  A    between atoms: _28  and  _29
REMARK   10  A    between atoms: _31  and  _33
REMARK   11  A    between atoms: _33  and  _34
REMARK   12  A    between atoms: _33  and  _36
REMARK   13  A    between atoms: _36  and  _37
REMARK   14  A    between atoms: _43  and  _45
REMARK   15  A    between atoms: _45  and  _46
REMARK   16  A    between atoms: _45  and  _48
REMARK   17  A    between atoms: _48  and  _49
REMARK   18  A    between atoms: _52  and  _53
REMARK   19  A    between atoms: _58  and  _60
REMARK   20  A    between atoms: _60  and  _61
REMARK   21  A    between atoms: _60  and  _63
REMARK   22  A    between atoms: _63  and  _64
REMARK   23  A    between atoms: _69  and  _71
REMARK   24  A    between atoms: _71  and  _72
REMARK   25  A    between atoms: _71  and  _74
REMARK   26  A    between atoms: _74  and  _75
REMARK   27  A    between atoms: _80  and  _82
REMARK   28  A    between atoms: _82  and  _83
REMARK   29  A    between atoms: _86  and  _88
REMARK   30  A    between atoms: _88  and  _89
REMARK   31  A    between atoms: _88  and  _91
REMARK   32  A    between atoms: _91  and  _92
REMARK   33  A    between atoms: _97  and  _99
REMARK   34  A    between atoms: _99  and  _100
REMARK   35  A    between atoms: _99  and  _102
REMARK   36  A    between atoms: _102  and  _103
REMARK   37  A    between atoms: _106  and  _108
REMARK   38  A    between atoms: _108  and  _109
REMARK   39  A    between atoms: _108  and  _111
REMARK   40  A    between atoms: _111  and  _112
REMARK   41  A    between atoms: _112  and  _113
REMARK   42  A    between atoms: _118  and  _120
REMARK   43  A    between atoms: _120  and  _121
REMARK   44  A    between atoms: _120  and  _123
REMARK   45  A    between atoms: _123  and  _124
REMARK   46  A    between atoms: _130  and  _132
REMARK   47  A    between atoms: _143  and  _146
REMARK   48  A    between atoms: _146  and  _147
REMARK   49  A    between atoms: _155  and  _156
REMARK   50  A    between atoms: _164  and  _166
REMARK   51  A    between atoms: _166  and  _167
REMARK   52  A    between atoms: _166  and  _169
REMARK   53  A    between atoms: _169  and  _170
REMARK   54  A    between atoms: _170  and  _171
REMARK   55  A    between atoms: _174  and  _176
REMARK   56  A    between atoms: _176  and  _177
REMARK   57  A    between atoms: _176  and  _179
REMARK   58  A    between atoms: _179  and  _180
REMARK   59  A    between atoms: _185  and  _187
REMARK   60  A    between atoms: _187  and  _188
REMARK   61  A    between atoms: _187  and  _190
REMARK   62  A    between atoms: _190  and  _191
REMARK   63  A    between atoms: _191  and  _192
REMARK   64  A    between atoms: _195  and  _197
REMARK   65  A    between atoms: _197  and  _198
REMARK   66  A    between atoms: _197  and  _200
REMARK   67  A    between atoms: _200  and  _201
REMARK   68  A    between atoms: _204  and  _206
REMARK   69  A    between atoms: _206  and  _207
REMARK   70  A    between atoms: _206  and  _209
REMARK   71  A    between atoms: _209  and  _210
REMARK   72  A    between atoms: _211  and  ZN_436
REMARK   73  A    between atoms: _215  and  _217
REMARK   74  A    between atoms: _217  and  _218
REMARK   75  A    between atoms: _217  and  _220
REMARK   76  A    between atoms: _220  and  _221
REMARK   77  A    between atoms: _224  and  _226
REMARK   78  A    between atoms: _226  and  _227
REMARK   79  A    between atoms: _226  and  _229
REMARK   80  A    between atoms: _232  and  _234
REMARK   81  A    between atoms: _234  and  _235
REMARK   82  A    between atoms: _234  and  _237
REMARK   83  A    between atoms: _237  and  _238
REMARK   84  A    between atoms: _243  and  _245
REMARK   85  A    between atoms: _245  and  _246
REMARK   86  A    between atoms: _245  and  _248
REMARK   87  A    between atoms: _248  and  _249
REMARK   88  A    between atoms: _255  and  _257
REMARK   89  A    between atoms: _257  and  _258
REMARK   90  A    between atoms: _260  and  _262
REMARK   91  A    between atoms: _262  and  _263
REMARK   92  A    between atoms: _262  and  _265
REMARK   93  A    between atoms: _268  and  _270
REMARK   94  A    between atoms: _270  and  _271
REMARK   95  A    between atoms: _270  and  _273
REMARK   96  A    between atoms: _273  and  _274
REMARK   97  A    between atoms: _277  and  _279
REMARK   98  A    between atoms: _279  and  _280
REMARK   99  A    between atoms: _283  and  _285
REMARK  100  A    between atoms: _285  and  _286
REMARK  101  A    between atoms: _285  and  _288
REMARK  102  A    between atoms: _291  and  _293
REMARK  103  A    between atoms: _293  and  _294
REMARK  104  A    between atoms: _293  and  _296
REMARK  105  A    between atoms: _296  and  _297
REMARK  106  A    between atoms: _300  and  _302
REMARK  107  A    between atoms: _302  and  _303
REMARK  108  A    between atoms: _305  and  _307
REMARK  109  A    between atoms: _307  and  _308
REMARK  110  A    between atoms: _310  and  _312
REMARK  111  A    between atoms: _312  and  _313
REMARK  112  A    between atoms: _312  and  _315
REMARK  113  A    between atoms: _315  and  _316
REMARK  114  A    between atoms: _318  and  _320
REMARK  115  A    between atoms: _320  and  _321
REMARK  116  A    between atoms: _320  and  _323
REMARK  117  A    between atoms: _323  and  _324
REMARK  118  A    between atoms: _327  and  _329
REMARK  119  A    between atoms: _329  and  _330
REMARK  120  A    between atoms: _329  and  _332
REMARK  121  A    between atoms: _332  and  _333
REMARK  122  A    between atoms: _336  and  _338
REMARK  123  A    between atoms: _338  and  _339
REMARK  124  A    between atoms: _338  and  _341
REMARK  125  A    between atoms: _341  and  _342
REMARK  126  A    between atoms: _346  and  _347
REMARK  127  A    between atoms: _353  and  _354
REMARK  128  A    between atoms: _359  and  _361
REMARK  129  A    between atoms: _361  and  _362
REMARK  130  A    between atoms: _361  and  _364
REMARK  131  A    between atoms: _364  and  _365
REMARK  132  A    between atoms: _368  and  _370
REMARK  133  A    between atoms: _370  and  _371
REMARK  134  A    between atoms: _370  and  _373
REMARK  135  A    between atoms: _373  and  _374
REMARK  136  A    between atoms: _377  and  _379
REMARK  137  A    between atoms: _379  and  _380
REMARK  138  A    between atoms: _379  and  _382
REMARK  139  A    between atoms: _384  and  _386
REMARK  140  A    between atoms: _386  and  _387
REMARK  141  A    between atoms: _386  and  _389
REMARK  142  A    between atoms: _392  and  _394
REMARK  143  A    between atoms: _394  and  _395
REMARK  144  A    between atoms: _394  and  _397
REMARK  145  A    between atoms: _397  and  _398
REMARK  146  A    between atoms: _408  and  _410
REMARK  147  A    between atoms: _410  and  _411
REMARK  148  A    between atoms: _410  and  _413
REMARK  149  A    between atoms: _413  and  _414
REMARK  150  A    between atoms: _419  and  _421
REMARK  151  A    between atoms: _421  and  _422
REMARK  152  A    between atoms: _421  and  _424
REMARK  153  A    between atoms: _424  and  _425
REMARK  154  A    between atoms: _425  and  _426
REMARK  155  A    between atoms: _426  and  _427
REMARK                            x       y       z     vdW  Elec       q    Type
REMARK                         _______ _______ _______ _____ _____    ______ ____
ROOT
ATOM      1  O   HOH     1      16.080   1.436   9.808  0.00  0.00    +0.000 OA
ENDROOT
TORSDOF 0
REMARK  Name = ../refined-set-2016/5byi/5byi_pocket.pdb
REMARK  155 active torsions:
REMARK  status: ('A' for Active; 'I' for Inactive)
REMARK    1  A    between atoms: _1  and  _3
REMARK    2  A    between atoms: _3  and  _4
REMARK    3  A    between atoms: _3  and  _6
REMARK    4  A    between atoms: _6  and  _7
REMARK    5  A    between atoms: _17  and  _19
REMARK    6  A    between atoms: _19  and  _20
REMARK    7  A    between atoms: _19  and  _22
REMARK    8  A    between atoms: _22  and  _23
REMARK    9  A    between atoms: _28  and  _29
REMARK   10  A    between atoms: _31  and  _33
REMARK   11  A    between atoms: _33  and  _34
REMARK   12  A    between atoms: _33  and  _36
REMARK   13  A    between atoms: _36  and  _37
REMARK   14  A    between atoms: _43  and  _45
REMARK   15  A    between atoms: _45  and  _46
REMARK   16  A    between atoms: _45  and  _48
REMARK   17  A    between atoms: _48  and  _49
REMARK   18  A    between atoms: _52  and  _53
REMARK   19  A    between atoms: _58  and  _60
REMARK   20  A    between atoms: _60  and  _61
REMARK   21  A    between atoms: _60  and  _63
REMARK   22  A    between atoms: _63  and  _64
REMARK   23  A    between atoms: _69  and  _71
REMARK   24  A    between atoms: _71  and  _72
REMARK   25  A    between atoms: _71  and  _74
REMARK   26  A    between atoms: _74  and  _75
REMARK   27  A    between atoms: _80  and  _82
REMARK   28  A    between atoms: _82  and  _83
REMARK   29  A    between atoms: _86  and  _88
REMARK   30  A    between atoms: _88  and  _89
REMARK   31  A    between atoms: _88  and  _91
REMARK   32  A    between atoms: _91  and  _92
REMARK   33  A    between atoms: _97  and  _99
REMARK   34  A    between atoms: _99  and  _100
REMARK   35  A    between atoms: _99  and  _102
REMARK   36  A    between atoms: _102  and  _103
REMARK   37  A    between atoms: _106  and  _108
REMARK   38  A    between atoms: _108  and  _109
REMARK   39  A    between atoms: _108  and  _111
REMARK   40  A    between atoms: _111  and  _112
REMARK   41  A    between atoms: _112  and  _113
REMARK   42  A    between atoms: _118  and  _120
REMARK   43  A    between atoms: _120  and  _121
REMARK   44  A    between atoms: _120  and  _123
REMARK   45  A    between atoms: _123  and  _124
REMARK   46  A    between atoms: _130  and  _132
REMARK   47  A    between atoms: _143  and  _146
REMARK   48  A    between atoms: _146  and  _147
REMARK   49  A    between atoms: _155  and  _156
REMARK   50  A    between atoms: _164  and  _166
REMARK   51  A    between atoms: _166  and  _167
REMARK   52  A    between atoms: _166  and  _169
REMARK   53  A    between atoms: _169  and  _170
REMARK   54  A    between atoms: _170  and  _171
REMARK   55  A    between atoms: _174  and  _176
REMARK   56  A    between atoms: _176  and  _177
REMARK   57  A    between atoms: _176  and  _179
REMARK   58  A    between atoms: _179  and  _180
REMARK   59  A    between atoms: _185  and  _187
REMARK   60  A    between atoms: _187  and  _188
REMARK   61  A    between atoms: _187  and  _190
REMARK   62  A    between atoms: _190  and  _191
REMARK   63  A    between atoms: _191  and  _192
REMARK   64  A    between atoms: _195  and  _197
REMARK   65  A    between atoms: _197  and  _198
REMARK   66  A    between atoms: _197  and  _200
REMARK   67  A    between atoms: _200  and  _201
REMARK   68  A    between atoms: _204  and  _206
REMARK   69  A    between atoms: _206  and  _207
REMARK   70  A    between atoms: _206  and  _209
REMARK   71  A    between atoms: _209  and  _210
REMARK   72  A    between atoms: _211  and  ZN_436
REMARK   73  A    between atoms: _215  and  _217
REMARK   74  A    between atoms: _217  and  _218
REMARK   75  A    between atoms: _217  and  _220
REMARK   76  A    between atoms: _220  and  _221
REMARK   77  A    between atoms: _224  and  _226
REMARK   78  A    between atoms: _226  and  _227
REMARK   79  A    between atoms: _226  and  _229
REMARK   80  A    between atoms: _232  and  _234
REMARK   81  A    between atoms: _234  and  _235
REMARK   82  A    between atoms: _234  and  _237
REMARK   83  A    between atoms: _237  and  _238
REMARK   84  A    between atoms: _243  and  _245
REMARK   85  A    between atoms: _245  and  _246
REMARK   86  A    between atoms: _245  and  _248
REMARK   87  A    between atoms: _248  and  _249
REMARK   88  A    between atoms: _255  and  _257
REMARK   89  A    between atoms: _257  and  _258
REMARK   90  A    between atoms: _260  and  _262
REMARK   91  A    between atoms: _262  and  _263
REMARK   92  A    between atoms: _262  and  _265
REMARK   93  A    between atoms: _268  and  _270
REMARK   94  A    between atoms: _270  and  _271
REMARK   95  A    between atoms: _270  and  _273
REMARK   96  A    between atoms: _273  and  _274
REMARK   97  A    between atoms: _277  and  _279
REMARK   98  A    between atoms: _279  and  _280
REMARK   99  A    between atoms: _283  and  _285
REMARK  100  A    between atoms: _285  and  _286
REMARK  101  A    between atoms: _285  and  _288
REMARK  102  A    between atoms: _291  and  _293
REMARK  103  A    between atoms: _293  and  _294
REMARK  104  A    between atoms: _293  and  _296
REMARK  105  A    between atoms: _296  and  _297
REMARK  106  A    between atoms: _300  and  _302
REMARK  107  A    between atoms: _302  and  _303
REMARK  108  A    between atoms: _305  and  _307
REMARK  109  A    between atoms: _307  and  _308
REMARK  110  A    between atoms: _310  and  _312
REMARK  111  A    between atoms: _312  and  _313
REMARK  112  A    between atoms: _312  and  _315
REMARK  113  A    between atoms: _315  and  _316
REMARK  114  A    between atoms: _318  and  _320
REMARK  115  A    between atoms: _320  and  _321
REMARK  116  A    between atoms: _320  and  _323
REMARK  117  A    between atoms: _323  and  _324
REMARK  118  A    between atoms: _327  and  _329
REMARK  119  A    between atoms: _329  and  _330
REMARK  120  A    between atoms: _329  and  _332
REMARK  121  A    between atoms: _332  and  _333
REMARK  122  A    between atoms: _336  and  _338
REMARK  123  A    between atoms: _338  and  _339
REMARK  124  A    between atoms: _338  and  _341
REMARK  125  A    between atoms: _341  and  _342
REMARK  126  A    between atoms: _346  and  _347
REMARK  127  A    between atoms: _353  and  _354
REMARK  128  A    between atoms: _359  and  _361
REMARK  129  A    between atoms: _361  and  _362
REMARK  130  A    between atoms: _361  and  _364
REMARK  131  A    between atoms: _364  and  _365
REMARK  132  A    between atoms: _368  and  _370
REMARK  133  A    between atoms: _370  and  _371
REMARK  134  A    between atoms: _370  and  _373
REMARK  135  A    between atoms: _373  and  _374
REMARK  136  A    between atoms: _377  and  _379
REMARK  137  A    between atoms: _379  and  _380
REMARK  138  A    between atoms: _379  and  _382
REMARK  139  A    between atoms: _384  and  _386
REMARK  140  A    between atoms: _386  and  _387
REMARK  141  A    between atoms: _386  and  _389
REMARK  142  A    between atoms: _392  and  _394
REMARK  143  A    between atoms: _394  and  _395
REMARK  144  A    between atoms: _394  and  _397
REMARK  145  A    between atoms: _397  and  _398
REMARK  146  A    between atoms: _408  and  _410
REMARK  147  A    between atoms: _410  and  _411
REMARK  148  A    between atoms: _410  and  _413
REMARK  149  A    between atoms: _413  and  _414
REMARK  150  A    between atoms: _419  and  _421
REMARK  151  A    between atoms: _421  and  _422
REMARK  152  A    between atoms: _421  and  _424
REMARK  153  A    between atoms: _424  and  _425
REMARK  154  A    between atoms: _425  and  _426
REMARK  155  A    between atoms: _426  and  _427
REMARK                            x       y       z     vdW  Elec       q    Type
REMARK                         _______ _______ _______ _____ _____    ______ ____
ROOT
ATOM      1  O   HOH     1      18.566  -2.702  11.406  0.00  0.00    +0.000 OA
ENDROOT
TORSDOF 0
REMARK  Name = ../refined-set-2016/5byi/5byi_pocket.pdb
REMARK  155 active torsions:
REMARK  status: ('A' for Active; 'I' for Inactive)
REMARK    1  A    between atoms: _1  and  _3
REMARK    2  A    between atoms: _3  and  _4
REMARK    3  A    between atoms: _3  and  _6
REMARK    4  A    between atoms: _6  and  _7
REMARK    5  A    between atoms: _17  and  _19
REMARK    6  A    between atoms: _19  and  _20
REMARK    7  A    between atoms: _19  and  _22
REMARK    8  A    between atoms: _22  and  _23
REMARK    9  A    between atoms: _28  and  _29
REMARK   10  A    between atoms: _31  and  _33
REMARK   11  A    between atoms: _33  and  _34
REMARK   12  A    between atoms: _33  and  _36
REMARK   13  A    between atoms: _36  and  _37
REMARK   14  A    between atoms: _43  and  _45
REMARK   15  A    between atoms: _45  and  _46
REMARK   16  A    between atoms: _45  and  _48
REMARK   17  A    between atoms: _48  and  _49
REMARK   18  A    between atoms: _52  and  _53
REMARK   19  A    between atoms: _58  and  _60
REMARK   20  A    between atoms: _60  and  _61
REMARK   21  A    between atoms: _60  and  _63
REMARK   22  A    between atoms: _63  and  _64
REMARK   23  A    between atoms: _69  and  _71
REMARK   24  A    between atoms: _71  and  _72
REMARK   25  A    between atoms: _71  and  _74
REMARK   26  A    between atoms: _74  and  _75
REMARK   27  A    between atoms: _80  and  _82
REMARK   28  A    between atoms: _82  and  _83
REMARK   29  A    between atoms: _86  and  _88
REMARK   30  A    between atoms: _88  and  _89
REMARK   31  A    between atoms: _88  and  _91
REMARK   32  A    between atoms: _91  and  _92
REMARK   33  A    between atoms: _97  and  _99
REMARK   34  A    between atoms: _99  and  _100
REMARK   35  A    between atoms: _99  and  _102
REMARK   36  A    between atoms: _102  and  _103
REMARK   37  A    between atoms: _106  and  _108
REMARK   38  A    between atoms: _108  and  _109
REMARK   39  A    between atoms: _108  and  _111
REMARK   40  A    between atoms: _111  and  _112
REMARK   41  A    between atoms: _112  and  _113
REMARK   42  A    between atoms: _118  and  _120
REMARK   43  A    between atoms: _120  and  _121
REMARK   44  A    between atoms: _120  and  _123
REMARK   45  A    between atoms: _123  and  _124
REMARK   46  A    between atoms: _130  and  _132
REMARK   47  A    between atoms: _143  and  _146
REMARK   48  A    between atoms: _146  and  _147
REMARK   49  A    between atoms: _155  and  _156
REMARK   50  A    between atoms: _164  and  _166
REMARK   51  A    between atoms: _166  and  _167
REMARK   52  A    between atoms: _166  and  _169
REMARK   53  A    between atoms: _169  and  _170
REMARK   54  A    between atoms: _170  and  _171
REMARK   55  A    between atoms: _174  and  _176
REMARK   56  A    between atoms: _176  and  _177
REMARK   57  A    between atoms: _176  and  _179
REMARK   58  A    between atoms: _179  and  _180
REMARK   59  A    between atoms: _185  and  _187
REMARK   60  A    between atoms: _187  and  _188
REMARK   61  A    between atoms: _187  and  _190
REMARK   62  A    between atoms: _190  and  _191
REMARK   63  A    between atoms: _191  and  _192
REMARK   64  A    between atoms: _195  and  _197
REMARK   65  A    between atoms: _197  and  _198
REMARK   66  A    between atoms: _197  and  _200
REMARK   67  A    between atoms: _200  and  _201
REMARK   68  A    between atoms: _204  and  _206
REMARK   69  A    between atoms: _206  and  _207
REMARK   70  A    between atoms: _206  and  _209
REMARK   71  A    between atoms: _209  and  _210
REMARK   72  A    between atoms: _211  and  ZN_436
REMARK   73  A    between atoms: _215  and  _217
REMARK   74  A    between atoms: _217  and  _218
REMARK   75  A    between atoms: _217  and  _220
REMARK   76  A    between atoms: _220  and  _221
REMARK   77  A    between atoms: _224  and  _226
REMARK   78  A    between atoms: _226  and  _227
REMARK   79  A    between atoms: _226  and  _229
REMARK   80  A    between atoms: _232  and  _234
REMARK   81  A    between atoms: _234  and  _235
REMARK   82  A    between atoms: _234  and  _237
REMARK   83  A    between atoms: _237  and  _238
REMARK   84  A    between atoms: _243  and  _245
REMARK   85  A    between atoms: _245  and  _246
REMARK   86  A    between atoms: _245  and  _248
REMARK   87  A    between atoms: _248  and  _249
REMARK   88  A    between atoms: _255  and  _257
REMARK   89  A    between atoms: _257  and  _258
REMARK   90  A    between atoms: _260  and  _262
REMARK   91  A    between atoms: _262  and  _263
REMARK   92  A    between atoms: _262  and  _265
REMARK   93  A    between atoms: _268  and  _270
REMARK   94  A    between atoms: _270  and  _271
REMARK   95  A    between atoms: _270  and  _273
REMARK   96  A    between atoms: _273  and  _274
REMARK   97  A    between atoms: _277  and  _279
REMARK   98  A    between atoms: _279  and  _280
REMARK   99  A    between atoms: _283  and  _285
REMARK  100  A    between atoms: _285  and  _286
REMARK  101  A    between atoms: _285  and  _288
REMARK  102  A    between atoms: _291  and  _293
REMARK  103  A    between atoms: _293  and  _294
REMARK  104  A    between atoms: _293  and  _296
REMARK  105  A    between atoms: _296  and  _297
REMARK  106  A    between atoms: _300  and  _302
REMARK  107  A    between atoms: _302  and  _303
REMARK  108  A    between atoms: _305  and  _307
REMARK  109  A    between atoms: _307  and  _308
REMARK  110  A    between atoms: _310  and  _312
REMARK  111  A    between atoms: _312  and  _313
REMARK  112  A    between atoms: _312  and  _315
REMARK  113  A    between atoms: _315  and  _316
REMARK  114  A    between atoms: _318  and  _320
REMARK  115  A    between atoms: _320  and  _321
REMARK  116  A    between atoms: _320  and  _323
REMARK  117  A    between atoms: _323  and  _324
REMARK  118  A    between atoms: _327  and  _329
REMARK  119  A    between atoms: _329  and  _330
REMARK  120  A    between atoms: _329  and  _332
REMARK  121  A    between atoms: _332  and  _333
REMARK  122  A    between atoms: _336  and  _338
REMARK  123  A    between atoms: _338  and  _339
REMARK  124  A    between atoms: _338  and  _341
REMARK  125  A    between atoms: _341  and  _342
REMARK  126  A    between atoms: _346  and  _347
REMARK  127  A    between atoms: _353  and  _354
REMARK  128  A    between atoms: _359  and  _361
REMARK  129  A    between atoms: _361  and  _362
REMARK  130  A    between atoms: _361  and  _364
REMARK  131  A    between atoms: _364  and  _365
REMARK  132  A    between atoms: _368  and  _370
REMARK  133  A    between atoms: _370  and  _371
REMARK  134  A    between atoms: _370  and  _373
REMARK  135  A    between atoms: _373  and  _374
REMARK  136  A    between atoms: _377  and  _379
REMARK  137  A    between atoms: _379  and  _380
REMARK  138  A    between atoms: _379  and  _382
REMARK  139  A    between atoms: _384  and  _386
REMARK  140  A    between atoms: _386  and  _387
REMARK  141  A    between atoms: _386  and  _389
REMARK  142  A    between atoms: _392  and  _394
REMARK  143  A    between atoms: _394  and  _395
REMARK  144  A    between atoms: _394  and  _397
REMARK  145  A    between atoms: _397  and  _398
REMARK  146  A    between atoms: _408  and  _410
REMARK  147  A    between atoms: _410  and  _411
REMARK  148  A    between atoms: _410  and  _413
REMARK  149  A    between atoms: _413  and  _414
REMARK  150  A    between atoms: _419  and  _421
REMARK  151  A    between atoms: _421  and  _422
REMARK  152  A    between atoms: _421  and  _424
REMARK  153  A    between atoms: _424  and  _425
REMARK  154  A    between atoms: _425  and  _426
REMARK  155  A    between atoms: _426  and  _427
REMARK                            x       y       z     vdW  Elec       q    Type
REMARK                         _______ _______ _______ _____ _____    ______ ____
ROOT
ATOM      1  O   HOH     1      20.506  15.550  16.222  0.00  0.00    +0.000 OA
ENDROOT
TORSDOF 0
REMARK  Name = ../refined-set-2016/5byi/5byi_pocket.pdb
REMARK  155 active torsions:
REMARK  status: ('A' for Active; 'I' for Inactive)
REMARK    1  A    between atoms: _1  and  _3
REMARK    2  A    between atoms: _3  and  _4
REMARK    3  A    between atoms: _3  and  _6
REMARK    4  A    between atoms: _6  and  _7
REMARK    5  A    between atoms: _17  and  _19
REMARK    6  A    between atoms: _19  and  _20
REMARK    7  A    between atoms: _19  and  _22
REMARK    8  A    between atoms: _22  and  _23
REMARK    9  A    between atoms: _28  and  _29
REMARK   10  A    between atoms: _31  and  _33
REMARK   11  A    between atoms: _33  and  _34
REMARK   12  A    between atoms: _33  and  _36
REMARK   13  A    between atoms: _36  and  _37
REMARK   14  A    between atoms: _43  and  _45
REMARK   15  A    between atoms: _45  and  _46
REMARK   16  A    between atoms: _45  and  _48
REMARK   17  A    between atoms: _48  and  _49
REMARK   18  A    between atoms: _52  and  _53
REMARK   19  A    between atoms: _58  and  _60
REMARK   20  A    between atoms: _60  and  _61
REMARK   21  A    between atoms: _60  and  _63
REMARK   22  A    between atoms: _63  and  _64
REMARK   23  A    between atoms: _69  and  _71
REMARK   24  A    between atoms: _71  and  _72
REMARK   25  A    between atoms: _71  and  _74
REMARK   26  A    between atoms: _74  and  _75
REMARK   27  A    between atoms: _80  and  _82
REMARK   28  A    between atoms: _82  and  _83
REMARK   29  A    between atoms: _86  and  _88
REMARK   30  A    between atoms: _88  and  _89
REMARK   31  A    between atoms: _88  and  _91
REMARK   32  A    between atoms: _91  and  _92
REMARK   33  A    between atoms: _97  and  _99
REMARK   34  A    between atoms: _99  and  _100
REMARK   35  A    between atoms: _99  and  _102
REMARK   36  A    between atoms: _102  and  _103
REMARK   37  A    between atoms: _106  and  _108
REMARK   38  A    between atoms: _108  and  _109
REMARK   39  A    between atoms: _108  and  _111
REMARK   40  A    between atoms: _111  and  _112
REMARK   41  A    between atoms: _112  and  _113
REMARK   42  A    between atoms: _118  and  _120
REMARK   43  A    between atoms: _120  and  _121
REMARK   44  A    between atoms: _120  and  _123
REMARK   45  A    between atoms: _123  and  _124
REMARK   46  A    between atoms: _130  and  _132
REMARK   47  A    between atoms: _143  and  _146
REMARK   48  A    between atoms: _146  and  _147
REMARK   49  A    between atoms: _155  and  _156
REMARK   50  A    between atoms: _164  and  _166
REMARK   51  A    between atoms: _166  and  _167
REMARK   52  A    between atoms: _166  and  _169
REMARK   53  A    between atoms: _169  and  _170
REMARK   54  A    between atoms: _170  and  _171
REMARK   55  A    between atoms: _174  and  _176
REMARK   56  A    between atoms: _176  and  _177
REMARK   57  A    between atoms: _176  and  _179
REMARK   58  A    between atoms: _179  and  _180
REMARK   59  A    between atoms: _185  and  _187
REMARK   60  A    between atoms: _187  and  _188
REMARK   61  A    between atoms: _187  and  _190
REMARK   62  A    between atoms: _190  and  _191
REMARK   63  A    between atoms: _191  and  _192
REMARK   64  A    between atoms: _195  and  _197
REMARK   65  A    between atoms: _197  and  _198
REMARK   66  A    between atoms: _197  and  _200
REMARK   67  A    between atoms: _200  and  _201
REMARK   68  A    between atoms: _204  and  _206
REMARK   69  A    between atoms: _206  and  _207
REMARK   70  A    between atoms: _206  and  _209
REMARK   71  A    between atoms: _209  and  _210
REMARK   72  A    between atoms: _211  and  ZN_436
REMARK   73  A    between atoms: _215  and  _217
REMARK   74  A    between atoms: _217  and  _218
REMARK   75  A    between atoms: _217  and  _220
REMARK   76  A    between atoms: _220  and  _221
REMARK   77  A    between atoms: _224  and  _226
REMARK   78  A    between atoms: _226  and  _227
REMARK   79  A    between atoms: _226  and  _229
REMARK   80  A    between atoms: _232  and  _234
REMARK   81  A    between atoms: _234  and  _235
REMARK   82  A    between atoms: _234  and  _237
REMARK   83  A    between atoms: _237  and  _238
REMARK   84  A    between atoms: _243  and  _245
REMARK   85  A    between atoms: _245  and  _246
REMARK   86  A    between atoms: _245  and  _248
REMARK   87  A    between atoms: _248  and  _249
REMARK   88  A    between atoms: _255  and  _257
REMARK   89  A    between atoms: _257  and  _258
REMARK   90  A    between atoms: _260  and  _262
REMARK   91  A    between atoms: _262  and  _263
REMARK   92  A    between atoms: _262  and  _265
REMARK   93  A    between atoms: _268  and  _270
REMARK   94  A    between atoms: _270  and  _271
REMARK   95  A    between atoms: _270  and  _273
REMARK   96  A    between atoms: _273  and  _274
REMARK   97  A    between atoms: _277  and  _279
REMARK   98  A    between atoms: _279  and  _280
REMARK   99  A    between atoms: _283  and  _285
REMARK  100  A    between atoms: _285  and  _286
REMARK  101  A    between atoms: _285  and  _288
REMARK  102  A    between atoms: _291  and  _293
REMARK  103  A    between atoms: _293  and  _294
REMARK  104  A    between atoms: _293  and  _296
REMARK  105  A    between atoms: _296  and  _297
REMARK  106  A    between atoms: _300  and  _302
REMARK  107  A    between atoms: _302  and  _303
REMARK  108  A    between atoms: _305  and  _307
REMARK  109  A    between atoms: _307  and  _308
REMARK  110  A    between atoms: _310  and  _312
REMARK  111  A    between atoms: _312  and  _313
REMARK  112  A    between atoms: _312  and  _315
REMARK  113  A    between atoms: _315  and  _316
REMARK  114  A    between atoms: _318  and  _320
REMARK  115  A    between atoms: _320  and  _321
REMARK  116  A    between atoms: _320  and  _323
REMARK  117  A    between atoms: _323  and  _324
REMARK  118  A    between atoms: _327  and  _329
REMARK  119  A    between atoms: _329  and  _330
REMARK  120  A    between atoms: _329  and  _332
REMARK  121  A    between atoms: _332  and  _333
REMARK  122  A    between atoms: _336  and  _338
REMARK  123  A    between atoms: _338  and  _339
REMARK  124  A    between atoms: _338  and  _341
REMARK  125  A    between atoms: _341  and  _342
REMARK  126  A    between atoms: _346  and  _347
REMARK  127  A    between atoms: _353  and  _354
REMARK  128  A    between atoms: _359  and  _361
REMARK  129  A    between atoms: _361  and  _362
REMARK  130  A    between atoms: _361  and  _364
REMARK  131  A    between atoms: _364  and  _365
REMARK  132  A    between atoms: _368  and  _370
REMARK  133  A    between atoms: _370  and  _371
REMARK  134  A    between atoms: _370  and  _373
REMARK  135  A    between atoms: _373  and  _374
REMARK  136  A    between atoms: _377  and  _379
REMARK  137  A    between atoms: _379  and  _380
REMARK  138  A    between atoms: _379  and  _382
REMARK  139  A    between atoms: _384  and  _386
REMARK  140  A    between atoms: _386  and  _387
REMARK  141  A    between atoms: _386  and  _389
REMARK  142  A    between atoms: _392  and  _394
REMARK  143  A    between atoms: _394  and  _395
REMARK  144  A    between atoms: _394  and  _397
REMARK  145  A    between atoms: _397  and  _398
REMARK  146  A    between atoms: _408  and  _410
REMARK  147  A    between atoms: _410  and  _411
REMARK  148  A    between atoms: _410  and  _413
REMARK  149  A    between atoms: _413  and  _414
REMARK  150  A    between atoms: _419  and  _421
REMARK  151  A    between atoms: _421  and  _422
REMARK  152  A    between atoms: _421  and  _424
REMARK  153  A    between atoms: _424  and  _425
REMARK  154  A    between atoms: _425  and  _426
REMARK  155  A    between atoms: _426  and  _427
REMARK                            x       y       z     vdW  Elec       q    Type
REMARK                         _______ _______ _______ _____ _____    ______ ____
ROOT
ATOM      1  O   HOH     1      22.116  12.584  15.825  0.00  0.00    +0.000 OA
ENDROOT
TORSDOF 0
REMARK  Name = ../refined-set-2016/5byi/5byi_pocket.pdb
REMARK  155 active torsions:
REMARK  status: ('A' for Active; 'I' for Inactive)
REMARK    1  A    between atoms: _1  and  _3
REMARK    2  A    between atoms: _3  and  _4
REMARK    3  A    between atoms: _3  and  _6
REMARK    4  A    between atoms: _6  and  _7
REMARK    5  A    between atoms: _17  and  _19
REMARK    6  A    between atoms: _19  and  _20
REMARK    7  A    between atoms: _19  and  _22
REMARK    8  A    between atoms: _22  and  _23
REMARK    9  A    between atoms: _28  and  _29
REMARK   10  A    between atoms: _31  and  _33
REMARK   11  A    between atoms: _33  and  _34
REMARK   12  A    between atoms: _33  and  _36
REMARK   13  A    between atoms: _36  and  _37
REMARK   14  A    between atoms: _43  and  _45
REMARK   15  A    between atoms: _45  and  _46
REMARK   16  A    between atoms: _45  and  _48
REMARK   17  A    between atoms: _48  and  _49
REMARK   18  A    between atoms: _52  and  _53
REMARK   19  A    between atoms: _58  and  _60
REMARK   20  A    between atoms: _60  and  _61
REMARK   21  A    between atoms: _60  and  _63
REMARK   22  A    between atoms: _63  and  _64
REMARK   23  A    between atoms: _69  and  _71
REMARK   24  A    between atoms: _71  and  _72
REMARK   25  A    between atoms: _71  and  _74
REMARK   26  A    between atoms: _74  and  _75
REMARK   27  A    between atoms: _80  and  _82
REMARK   28  A    between atoms: _82  and  _83
REMARK   29  A    between atoms: _86  and  _88
REMARK   30  A    between atoms: _88  and  _89
REMARK   31  A    between atoms: _88  and  _91
REMARK   32  A    between atoms: _91  and  _92
REMARK   33  A    between atoms: _97  and  _99
REMARK   34  A    between atoms: _99  and  _100
REMARK   35  A    between atoms: _99  and  _102
REMARK   36  A    between atoms: _102  and  _103
REMARK   37  A    between atoms: _106  and  _108
REMARK   38  A    between atoms: _108  and  _109
REMARK   39  A    between atoms: _108  and  _111
REMARK   40  A    between atoms: _111  and  _112
REMARK   41  A    between atoms: _112  and  _113
REMARK   42  A    between atoms: _118  and  _120
REMARK   43  A    between atoms: _120  and  _121
REMARK   44  A    between atoms: _120  and  _123
REMARK   45  A    between atoms: _123  and  _124
REMARK   46  A    between atoms: _130  and  _132
REMARK   47  A    between atoms: _143  and  _146
REMARK   48  A    between atoms: _146  and  _147
REMARK   49  A    between atoms: _155  and  _156
REMARK   50  A    between atoms: _164  and  _166
REMARK   51  A    between atoms: _166  and  _167
REMARK   52  A    between atoms: _166  and  _169
REMARK   53  A    between atoms: _169  and  _170
REMARK   54  A    between atoms: _170  and  _171
REMARK   55  A    between atoms: _174  and  _176
REMARK   56  A    between atoms: _176  and  _177
REMARK   57  A    between atoms: _176  and  _179
REMARK   58  A    between atoms: _179  and  _180
REMARK   59  A    between atoms: _185  and  _187
REMARK   60  A    between atoms: _187  and  _188
REMARK   61  A    between atoms: _187  and  _190
REMARK   62  A    between atoms: _190  and  _191
REMARK   63  A    between atoms: _191  and  _192
REMARK   64  A    between atoms: _195  and  _197
REMARK   65  A    between atoms: _197  and  _198
REMARK   66  A    between atoms: _197  and  _200
REMARK   67  A    between atoms: _200  and  _201
REMARK   68  A    between atoms: _204  and  _206
REMARK   69  A    between atoms: _206  and  _207
REMARK   70  A    between atoms: _206  and  _209
REMARK   71  A    between atoms: _209  and  _210
REMARK   72  A    between atoms: _211  and  ZN_436
REMARK   73  A    between atoms: _215  and  _217
REMARK   74  A    between atoms: _217  and  _218
REMARK   75  A    between atoms: _217  and  _220
REMARK   76  A    between atoms: _220  and  _221
REMARK   77  A    between atoms: _224  and  _226
REMARK   78  A    between atoms: _226  and  _227
REMARK   79  A    between atoms: _226  and  _229
REMARK   80  A    between atoms: _232  and  _234
REMARK   81  A    between atoms: _234  and  _235
REMARK   82  A    between atoms: _234  and  _237
REMARK   83  A    between atoms: _237  and  _238
REMARK   84  A    between atoms: _243  and  _245
REMARK   85  A    between atoms: _245  and  _246
REMARK   86  A    between atoms: _245  and  _248
REMARK   87  A    between atoms: _248  and  _249
REMARK   88  A    between atoms: _255  and  _257
REMARK   89  A    between atoms: _257  and  _258
REMARK   90  A    between atoms: _260  and  _262
REMARK   91  A    between atoms: _262  and  _263
REMARK   92  A    between atoms: _262  and  _265
REMARK   93  A    between atoms: _268  and  _270
REMARK   94  A    between atoms: _270  and  _271
REMARK   95  A    between atoms: _270  and  _273
REMARK   96  A    between atoms: _273  and  _274
REMARK   97  A    between atoms: _277  and  _279
REMARK   98  A    between atoms: _279  and  _280
REMARK   99  A    between atoms: _283  and  _285
REMARK  100  A    between atoms: _285  and  _286
REMARK  101  A    between atoms: _285  and  _288
REMARK  102  A    between atoms: _291  and  _293
REMARK  103  A    between atoms: _293  and  _294
REMARK  104  A    between atoms: _293  and  _296
REMARK  105  A    between atoms: _296  and  _297
REMARK  106  A    between atoms: _300  and  _302
REMARK  107  A    between atoms: _302  and  _303
REMARK  108  A    between atoms: _305  and  _307
REMARK  109  A    between atoms: _307  and  _308
REMARK  110  A    between atoms: _310  and  _312
REMARK  111  A    between atoms: _312  and  _313
REMARK  112  A    between atoms: _312  and  _315
REMARK  113  A    between atoms: _315  and  _316
REMARK  114  A    between atoms: _318  and  _320
REMARK  115  A    between atoms: _320  and  _321
REMARK  116  A    between atoms: _320  and  _323
REMARK  117  A    between atoms: _323  and  _324
REMARK  118  A    between atoms: _327  and  _329
REMARK  119  A    between atoms: _329  and  _330
REMARK  120  A    between atoms: _329  and  _332
REMARK  121  A    between atoms: _332  and  _333
REMARK  122  A    between atoms: _336  and  _338
REMARK  123  A    between atoms: _338  and  _339
REMARK  124  A    between atoms: _338  and  _341
REMARK  125  A    between atoms: _341  and  _342
REMARK  126  A    between atoms: _346  and  _347
REMARK  127  A    between atoms: _353  and  _354
REMARK  128  A    between atoms: _359  and  _361
REMARK  129  A    between atoms: _361  and  _362
REMARK  130  A    between atoms: _361  and  _364
REMARK  131  A    between atoms: _364  and  _365
REMARK  132  A    between atoms: _368  and  _370
REMARK  133  A    between atoms: _370  and  _371
REMARK  134  A    between atoms: _370  and  _373
REMARK  135  A    between atoms: _373  and  _374
REMARK  136  A    between atoms: _377  and  _379
REMARK  137  A    between atoms: _379  and  _380
REMARK  138  A    between atoms: _379  and  _382
REMARK  139  A    between atoms: _384  and  _386
REMARK  140  A    between atoms: _386  and  _387
REMARK  141  A    between atoms: _386  and  _389
REMARK  142  A    between atoms: _392  and  _394
REMARK  143  A    between atoms: _394  and  _395
REMARK  144  A    between atoms: _394  and  _397
REMARK  145  A    between atoms: _397  and  _398
REMARK  146  A    between atoms: _408  and  _410
REMARK  147  A    between atoms: _410  and  _411
REMARK  148  A    between atoms: _410  and  _413
REMARK  149  A    between atoms: _413  and  _414
REMARK  150  A    between atoms: _419  and  _421
REMARK  151  A    between atoms: _421  and  _422
REMARK  152  A    between atoms: _421  and  _424
REMARK  153  A    between atoms: _424  and  _425
REMARK  154  A    between atoms: _425  and  _426
REMARK  155  A    between atoms: _426  and  _427
REMARK                            x       y       z     vdW  Elec       q    Type
REMARK                         _______ _______ _______ _____ _____    ______ ____
ROOT
ATOM      1  O   HOH     1      22.203  13.673  20.090  0.00  0.00    +0.000 OA
ENDROOT
TORSDOF 0
REMARK  Name = ../refined-set-2016/5byi/5byi_pocket.pdb
REMARK  155 active torsions:
REMARK  status: ('A' for Active; 'I' for Inactive)
REMARK    1  A    between atoms: _1  and  _3
REMARK    2  A    between atoms: _3  and  _4
REMARK    3  A    between atoms: _3  and  _6
REMARK    4  A    between atoms: _6  and  _7
REMARK    5  A    between atoms: _17  and  _19
REMARK    6  A    between atoms: _19  and  _20
REMARK    7  A    between atoms: _19  and  _22
REMARK    8  A    between atoms: _22  and  _23
REMARK    9  A    between atoms: _28  and  _29
REMARK   10  A    between atoms: _31  and  _33
REMARK   11  A    between atoms: _33  and  _34
REMARK   12  A    between atoms: _33  and  _36
REMARK   13  A    between atoms: _36  and  _37
REMARK   14  A    between atoms: _43  and  _45
REMARK   15  A    between atoms: _45  and  _46
REMARK   16  A    between atoms: _45  and  _48
REMARK   17  A    between atoms: _48  and  _49
REMARK   18  A    between atoms: _52  and  _53
REMARK   19  A    between atoms: _58  and  _60
REMARK   20  A    between atoms: _60  and  _61
REMARK   21  A    between atoms: _60  and  _63
REMARK   22  A    between atoms: _63  and  _64
REMARK   23  A    between atoms: _69  and  _71
REMARK   24  A    between atoms: _71  and  _72
REMARK   25  A    between atoms: _71  and  _74
REMARK   26  A    between atoms: _74  and  _75
REMARK   27  A    between atoms: _80  and  _82
REMARK   28  A    between atoms: _82  and  _83
REMARK   29  A    between atoms: _86  and  _88
REMARK   30  A    between atoms: _88  and  _89
REMARK   31  A    between atoms: _88  and  _91
REMARK   32  A    between atoms: _91  and  _92
REMARK   33  A    between atoms: _97  and  _99
REMARK   34  A    between atoms: _99  and  _100
REMARK   35  A    between atoms: _99  and  _102
REMARK   36  A    between atoms: _102  and  _103
REMARK   37  A    between atoms: _106  and  _108
REMARK   38  A    between atoms: _108  and  _109
REMARK   39  A    between atoms: _108  and  _111
REMARK   40  A    between atoms: _111  and  _112
REMARK   41  A    between atoms: _112  and  _113
REMARK   42  A    between atoms: _118  and  _120
REMARK   43  A    between atoms: _120  and  _121
REMARK   44  A    between atoms: _120  and  _123
REMARK   45  A    between atoms: _123  and  _124
REMARK   46  A    between atoms: _130  and  _132
REMARK   47  A    between atoms: _143  and  _146
REMARK   48  A    between atoms: _146  and  _147
REMARK   49  A    between atoms: _155  and  _156
REMARK   50  A    between atoms: _164  and  _166
REMARK   51  A    between atoms: _166  and  _167
REMARK   52  A    between atoms: _166  and  _169
REMARK   53  A    between atoms: _169  and  _170
REMARK   54  A    between atoms: _170  and  _171
REMARK   55  A    between atoms: _174  and  _176
REMARK   56  A    between atoms: _176  and  _177
REMARK   57  A    between atoms: _176  and  _179
REMARK   58  A    between atoms: _179  and  _180
REMARK   59  A    between atoms: _185  and  _187
REMARK   60  A    between atoms: _187  and  _188
REMARK   61  A    between atoms: _187  and  _190
REMARK   62  A    between atoms: _190  and  _191
REMARK   63  A    between atoms: _191  and  _192
REMARK   64  A    between atoms: _195  and  _197
REMARK   65  A    between atoms: _197  and  _198
REMARK   66  A    between atoms: _197  and  _200
REMARK   67  A    between atoms: _200  and  _201
REMARK   68  A    between atoms: _204  and  _206
REMARK   69  A    between atoms: _206  and  _207
REMARK   70  A    between atoms: _206  and  _209
REMARK   71  A    between atoms: _209  and  _210
REMARK   72  A    between atoms: _211  and  ZN_436
REMARK   73  A    between atoms: _215  and  _217
REMARK   74  A    between atoms: _217  and  _218
REMARK   75  A    between atoms: _217  and  _220
REMARK   76  A    between atoms: _220  and  _221
REMARK   77  A    between atoms: _224  and  _226
REMARK   78  A    between atoms: _226  and  _227
REMARK   79  A    between atoms: _226  and  _229
REMARK   80  A    between atoms: _232  and  _234
REMARK   81  A    between atoms: _234  and  _235
REMARK   82  A    between atoms: _234  and  _237
REMARK   83  A    between atoms: _237  and  _238
REMARK   84  A    between atoms: _243  and  _245
REMARK   85  A    between atoms: _245  and  _246
REMARK   86  A    between atoms: _245  and  _248
REMARK   87  A    between atoms: _248  and  _249
REMARK   88  A    between atoms: _255  and  _257
REMARK   89  A    between atoms: _257  and  _258
REMARK   90  A    between atoms: _260  and  _262
REMARK   91  A    between atoms: _262  and  _263
REMARK   92  A    between atoms: _262  and  _265
REMARK   93  A    between atoms: _268  and  _270
REMARK   94  A    between atoms: _270  and  _271
REMARK   95  A    between atoms: _270  and  _273
REMARK   96  A    between atoms: _273  and  _274
REMARK   97  A    between atoms: _277  and  _279
REMARK   98  A    between atoms: _279  and  _280
REMARK   99  A    between atoms: _283  and  _285
REMARK  100  A    between atoms: _285  and  _286
REMARK  101  A    between atoms: _285  and  _288
REMARK  102  A    between atoms: _291  and  _293
REMARK  103  A    between atoms: _293  and  _294
REMARK  104  A    between atoms: _293  and  _296
REMARK  105  A    between atoms: _296  and  _297
REMARK  106  A    between atoms: _300  and  _302
REMARK  107  A    between atoms: _302  and  _303
REMARK  108  A    between atoms: _305  and  _307
REMARK  109  A    between atoms: _307  and  _308
REMARK  110  A    between atoms: _310  and  _312
REMARK  111  A    between atoms: _312  and  _313
REMARK  112  A    between atoms: _312  and  _315
REMARK  113  A    between atoms: _315  and  _316
REMARK  114  A    between atoms: _318  and  _320
REMARK  115  A    between atoms: _320  and  _321
REMARK  116  A    between atoms: _320  and  _323
REMARK  117  A    between atoms: _323  and  _324
REMARK  118  A    between atoms: _327  and  _329
REMARK  119  A    between atoms: _329  and  _330
REMARK  120  A    between atoms: _329  and  _332
REMARK  121  A    between atoms: _332  and  _333
REMARK  122  A    between atoms: _336  and  _338
REMARK  123  A    between atoms: _338  and  _339
REMARK  124  A    between atoms: _338  and  _341
REMARK  125  A    between atoms: _341  and  _342
REMARK  126  A    between atoms: _346  and  _347
REMARK  127  A    between atoms: _353  and  _354
REMARK  128  A    between atoms: _359  and  _361
REMARK  129  A    between atoms: _361  and  _362
REMARK  130  A    between atoms: _361  and  _364
REMARK  131  A    between atoms: _364  and  _365
REMARK  132  A    between atoms: _368  and  _370
REMARK  133  A    between atoms: _370  and  _371
REMARK  134  A    between atoms: _370  and  _373
REMARK  135  A    between atoms: _373  and  _374
REMARK  136  A    between atoms: _377  and  _379
REMARK  137  A    between atoms: _379  and  _380
REMARK  138  A    between atoms: _379  and  _382
REMARK  139  A    between atoms: _384  and  _386
REMARK  140  A    between atoms: _386  and  _387
REMARK  141  A    between atoms: _386  and  _389
REMARK  142  A    between atoms: _392  and  _394
REMARK  143  A    between atoms: _394  and  _395
REMARK  144  A    between atoms: _394  and  _397
REMARK  145  A    between atoms: _397  and  _398
REMARK  146  A    between atoms: _408  and  _410
REMARK  147  A    between atoms: _410  and  _411
REMARK  148  A    between atoms: _410  and  _413
REMARK  149  A    between atoms: _413  and  _414
REMARK  150  A    between atoms: _419  and  _421
REMARK  151  A    between atoms: _421  and  _422
REMARK  152  A    between atoms: _421  and  _424
REMARK  153  A    between atoms: _424  and  _425
REMARK  154  A    between atoms: _425  and  _426
REMARK  155  A    between atoms: _426  and  _427
REMARK                            x       y       z     vdW  Elec       q    Type
REMARK                         _______ _______ _______ _____ _____    ______ ____
ROOT
ATOM      1  O   HOH     1      23.901   5.093  11.743  0.00  0.00    +0.000 OA
ENDROOT
TORSDOF 0
REMARK  Name = ../refined-set-2016/5byi/5byi_pocket.pdb
REMARK  155 active torsions:
REMARK  status: ('A' for Active; 'I' for Inactive)
REMARK    1  A    between atoms: _1  and  _3
REMARK    2  A    between atoms: _3  and  _4
REMARK    3  A    between atoms: _3  and  _6
REMARK    4  A    between atoms: _6  and  _7
REMARK    5  A    between atoms: _17  and  _19
REMARK    6  A    between atoms: _19  and  _20
REMARK    7  A    between atoms: _19  and  _22
REMARK    8  A    between atoms: _22  and  _23
REMARK    9  A    between atoms: _28  and  _29
REMARK   10  A    between atoms: _31  and  _33
REMARK   11  A    between atoms: _33  and  _34
REMARK   12  A    between atoms: _33  and  _36
REMARK   13  A    between atoms: _36  and  _37
REMARK   14  A    between atoms: _43  and  _45
REMARK   15  A    between atoms: _45  and  _46
REMARK   16  A    between atoms: _45  and  _48
REMARK   17  A    between atoms: _48  and  _49
REMARK   18  A    between atoms: _52  and  _53
REMARK   19  A    between atoms: _58  and  _60
REMARK   20  A    between atoms: _60  and  _61
REMARK   21  A    between atoms: _60  and  _63
REMARK   22  A    between atoms: _63  and  _64
REMARK   23  A    between atoms: _69  and  _71
REMARK   24  A    between atoms: _71  and  _72
REMARK   25  A    between atoms: _71  and  _74
REMARK   26  A    between atoms: _74  and  _75
REMARK   27  A    between atoms: _80  and  _82
REMARK   28  A    between atoms: _82  and  _83
REMARK   29  A    between atoms: _86  and  _88
REMARK   30  A    between atoms: _88  and  _89
REMARK   31  A    between atoms: _88  and  _91
REMARK   32  A    between atoms: _91  and  _92
REMARK   33  A    between atoms: _97  and  _99
REMARK   34  A    between atoms: _99  and  _100
REMARK   35  A    between atoms: _99  and  _102
REMARK   36  A    between atoms: _102  and  _103
REMARK   37  A    between atoms: _106  and  _108
REMARK   38  A    between atoms: _108  and  _109
REMARK   39  A    between atoms: _108  and  _111
REMARK   40  A    between atoms: _111  and  _112
REMARK   41  A    between atoms: _112  and  _113
REMARK   42  A    between atoms: _118  and  _120
REMARK   43  A    between atoms: _120  and  _121
REMARK   44  A    between atoms: _120  and  _123
REMARK   45  A    between atoms: _123  and  _124
REMARK   46  A    between atoms: _130  and  _132
REMARK   47  A    between atoms: _143  and  _146
REMARK   48  A    between atoms: _146  and  _147
REMARK   49  A    between atoms: _155  and  _156
REMARK   50  A    between atoms: _164  and  _166
REMARK   51  A    between atoms: _166  and  _167
REMARK   52  A    between atoms: _166  and  _169
REMARK   53  A    between atoms: _169  and  _170
REMARK   54  A    between atoms: _170  and  _171
REMARK   55  A    between atoms: _174  and  _176
REMARK   56  A    between atoms: _176  and  _177
REMARK   57  A    between atoms: _176  and  _179
REMARK   58  A    between atoms: _179  and  _180
REMARK   59  A    between atoms: _185  and  _187
REMARK   60  A    between atoms: _187  and  _188
REMARK   61  A    between atoms: _187  and  _190
REMARK   62  A    between atoms: _190  and  _191
REMARK   63  A    between atoms: _191  and  _192
REMARK   64  A    between atoms: _195  and  _197
REMARK   65  A    between atoms: _197  and  _198
REMARK   66  A    between atoms: _197  and  _200
REMARK   67  A    between atoms: _200  and  _201
REMARK   68  A    between atoms: _204  and  _206
REMARK   69  A    between atoms: _206  and  _207
REMARK   70  A    between atoms: _206  and  _209
REMARK   71  A    between atoms: _209  and  _210
REMARK   72  A    between atoms: _211  and  ZN_436
REMARK   73  A    between atoms: _215  and  _217
REMARK   74  A    between atoms: _217  and  _218
REMARK   75  A    between atoms: _217  and  _220
REMARK   76  A    between atoms: _220  and  _221
REMARK   77  A    between atoms: _224  and  _226
REMARK   78  A    between atoms: _226  and  _227
REMARK   79  A    between atoms: _226  and  _229
REMARK   80  A    between atoms: _232  and  _234
REMARK   81  A    between atoms: _234  and  _235
REMARK   82  A    between atoms: _234  and  _237
REMARK   83  A    between atoms: _237  and  _238
REMARK   84  A    between atoms: _243  and  _245
REMARK   85  A    between atoms: _245  and  _246
REMARK   86  A    between atoms: _245  and  _248
REMARK   87  A    between atoms: _248  and  _249
REMARK   88  A    between atoms: _255  and  _257
REMARK   89  A    between atoms: _257  and  _258
REMARK   90  A    between atoms: _260  and  _262
REMARK   91  A    between atoms: _262  and  _263
REMARK   92  A    between atoms: _262  and  _265
REMARK   93  A    between atoms: _268  and  _270
REMARK   94  A    between atoms: _270  and  _271
REMARK   95  A    between atoms: _270  and  _273
REMARK   96  A    between atoms: _273  and  _274
REMARK   97  A    between atoms: _277  and  _279
REMARK   98  A    between atoms: _279  and  _280
REMARK   99  A    between atoms: _283  and  _285
REMARK  100  A    between atoms: _285  and  _286
REMARK  101  A    between atoms: _285  and  _288
REMARK  102  A    between atoms: _291  and  _293
REMARK  103  A    between atoms: _293  and  _294
REMARK  104  A    between atoms: _293  and  _296
REMARK  105  A    between atoms: _296  and  _297
REMARK  106  A    between atoms: _300  and  _302
REMARK  107  A    between atoms: _302  and  _303
REMARK  108  A    between atoms: _305  and  _307
REMARK  109  A    between atoms: _307  and  _308
REMARK  110  A    between atoms: _310  and  _312
REMARK  111  A    between atoms: _312  and  _313
REMARK  112  A    between atoms: _312  and  _315
REMARK  113  A    between atoms: _315  and  _316
REMARK  114  A    between atoms: _318  and  _320
REMARK  115  A    between atoms: _320  and  _321
REMARK  116  A    between atoms: _320  and  _323
REMARK  117  A    between atoms: _323  and  _324
REMARK  118  A    between atoms: _327  and  _329
REMARK  119  A    between atoms: _329  and  _330
REMARK  120  A    between atoms: _329  and  _332
REMARK  121  A    between atoms: _332  and  _333
REMARK  122  A    between atoms: _336  and  _338
REMARK  123  A    between atoms: _338  and  _339
REMARK  124  A    between atoms: _338  and  _341
REMARK  125  A    between atoms: _341  and  _342
REMARK  126  A    between atoms: _346  and  _347
REMARK  127  A    between atoms: _353  and  _354
REMARK  128  A    between atoms: _359  and  _361
REMARK  129  A    between atoms: _361  and  _362
REMARK  130  A    between atoms: _361  and  _364
REMARK  131  A    between atoms: _364  and  _365
REMARK  132  A    between atoms: _368  and  _370
REMARK  133  A    between atoms: _370  and  _371
REMARK  134  A    between atoms: _370  and  _373
REMARK  135  A    between atoms: _373  and  _374
REMARK  136  A    between atoms: _377  and  _379
REMARK  137  A    between atoms: _379  and  _380
REMARK  138  A    between atoms: _379  and  _382
REMARK  139  A    between atoms: _384  and  _386
REMARK  140  A    between atoms: _386  and  _387
REMARK  141  A    between atoms: _386  and  _389
REMARK  142  A    between atoms: _392  and  _394
REMARK  143  A    between atoms: _394  and  _395
REMARK  144  A    between atoms: _394  and  _397
REMARK  145  A    between atoms: _397  and  _398
REMARK  146  A    between atoms: _408  and  _410
REMARK  147  A    between atoms: _410  and  _411
REMARK  148  A    between atoms: _410  and  _413
REMARK  149  A    between atoms: _413  and  _414
REMARK  150  A    between atoms: _419  and  _421
REMARK  151  A    between atoms: _421  and  _422
REMARK  152  A    between atoms: _421  and  _424
REMARK  153  A    between atoms: _424  and  _425
REMARK  154  A    between atoms: _425  and  _426
REMARK  155  A    between atoms: _426  and  _427
REMARK                            x       y       z     vdW  Elec       q    Type
REMARK                         _______ _______ _______ _____ _____    ______ ____
ROOT
ATOM      1  O   HOH     1      17.055   1.004  13.594  0.00  0.00    +0.000 OA
ENDROOT
TORSDOF 0
REMARK  Name = ../refined-set-2016/5byi/5byi_pocket.pdb
REMARK  155 active torsions:
REMARK  status: ('A' for Active; 'I' for Inactive)
REMARK    1  A    between atoms: _1  and  _3
REMARK    2  A    between atoms: _3  and  _4
REMARK    3  A    between atoms: _3  and  _6
REMARK    4  A    between atoms: _6  and  _7
REMARK    5  A    between atoms: _17  and  _19
REMARK    6  A    between atoms: _19  and  _20
REMARK    7  A    between atoms: _19  and  _22
REMARK    8  A    between atoms: _22  and  _23
REMARK    9  A    between atoms: _28  and  _29
REMARK   10  A    between atoms: _31  and  _33
REMARK   11  A    between atoms: _33  and  _34
REMARK   12  A    between atoms: _33  and  _36
REMARK   13  A    between atoms: _36  and  _37
REMARK   14  A    between atoms: _43  and  _45
REMARK   15  A    between atoms: _45  and  _46
REMARK   16  A    between atoms: _45  and  _48
REMARK   17  A    between atoms: _48  and  _49
REMARK   18  A    between atoms: _52  and  _53
REMARK   19  A    between atoms: _58  and  _60
REMARK   20  A    between atoms: _60  and  _61
REMARK   21  A    between atoms: _60  and  _63
REMARK   22  A    between atoms: _63  and  _64
REMARK   23  A    between atoms: _69  and  _71
REMARK   24  A    between atoms: _71  and  _72
REMARK   25  A    between atoms: _71  and  _74
REMARK   26  A    between atoms: _74  and  _75
REMARK   27  A    between atoms: _80  and  _82
REMARK   28  A    between atoms: _82  and  _83
REMARK   29  A    between atoms: _86  and  _88
REMARK   30  A    between atoms: _88  and  _89
REMARK   31  A    between atoms: _88  and  _91
REMARK   32  A    between atoms: _91  and  _92
REMARK   33  A    between atoms: _97  and  _99
REMARK   34  A    between atoms: _99  and  _100
REMARK   35  A    between atoms: _99  and  _102
REMARK   36  A    between atoms: _102  and  _103
REMARK   37  A    between atoms: _106  and  _108
REMARK   38  A    between atoms: _108  and  _109
REMARK   39  A    between atoms: _108  and  _111
REMARK   40  A    between atoms: _111  and  _112
REMARK   41  A    between atoms: _112  and  _113
REMARK   42  A    between atoms: _118  and  _120
REMARK   43  A    between atoms: _120  and  _121
REMARK   44  A    between atoms: _120  and  _123
REMARK   45  A    between atoms: _123  and  _124
REMARK   46  A    between atoms: _130  and  _132
REMARK   47  A    between atoms: _143  and  _146
REMARK   48  A    between atoms: _146  and  _147
REMARK   49  A    between atoms: _155  and  _156
REMARK   50  A    between atoms: _164  and  _166
REMARK   51  A    between atoms: _166  and  _167
REMARK   52  A    between atoms: _166  and  _169
REMARK   53  A    between atoms: _169  and  _170
REMARK   54  A    between atoms: _170  and  _171
REMARK   55  A    between atoms: _174  and  _176
REMARK   56  A    between atoms: _176  and  _177
REMARK   57  A    between atoms: _176  and  _179
REMARK   58  A    between atoms: _179  and  _180
REMARK   59  A    between atoms: _185  and  _187
REMARK   60  A    between atoms: _187  and  _188
REMARK   61  A    between atoms: _187  and  _190
REMARK   62  A    between atoms: _190  and  _191
REMARK   63  A    between atoms: _191  and  _192
REMARK   64  A    between atoms: _195  and  _197
REMARK   65  A    between atoms: _197  and  _198
REMARK   66  A    between atoms: _197  and  _200
REMARK   67  A    between atoms: _200  and  _201
REMARK   68  A    between atoms: _204  and  _206
REMARK   69  A    between atoms: _206  and  _207
REMARK   70  A    between atoms: _206  and  _209
REMARK   71  A    between atoms: _209  and  _210
REMARK   72  A    between atoms: _211  and  ZN_436
REMARK   73  A    between atoms: _215  and  _217
REMARK   74  A    between atoms: _217  and  _218
REMARK   75  A    between atoms: _217  and  _220
REMARK   76  A    between atoms: _220  and  _221
REMARK   77  A    between atoms: _224  and  _226
REMARK   78  A    between atoms: _226  and  _227
REMARK   79  A    between atoms: _226  and  _229
REMARK   80  A    between atoms: _232  and  _234
REMARK   81  A    between atoms: _234  and  _235
REMARK   82  A    between atoms: _234  and  _237
REMARK   83  A    between atoms: _237  and  _238
REMARK   84  A    between atoms: _243  and  _245
REMARK   85  A    between atoms: _245  and  _246
REMARK   86  A    between atoms: _245  and  _248
REMARK   87  A    between atoms: _248  and  _249
REMARK   88  A    between atoms: _255  and  _257
REMARK   89  A    between atoms: _257  and  _258
REMARK   90  A    between atoms: _260  and  _262
REMARK   91  A    between atoms: _262  and  _263
REMARK   92  A    between atoms: _262  and  _265
REMARK   93  A    between atoms: _268  and  _270
REMARK   94  A    between atoms: _270  and  _271
REMARK   95  A    between atoms: _270  and  _273
REMARK   96  A    between atoms: _273  and  _274
REMARK   97  A    between atoms: _277  and  _279
REMARK   98  A    between atoms: _279  and  _280
REMARK   99  A    between atoms: _283  and  _285
REMARK  100  A    between atoms: _285  and  _286
REMARK  101  A    between atoms: _285  and  _288
REMARK  102  A    between atoms: _291  and  _293
REMARK  103  A    between atoms: _293  and  _294
REMARK  104  A    between atoms: _293  and  _296
REMARK  105  A    between atoms: _296  and  _297
REMARK  106  A    between atoms: _300  and  _302
REMARK  107  A    between atoms: _302  and  _303
REMARK  108  A    between atoms: _305  and  _307
REMARK  109  A    between atoms: _307  and  _308
REMARK  110  A    between atoms: _310  and  _312
REMARK  111  A    between atoms: _312  and  _313
REMARK  112  A    between atoms: _312  and  _315
REMARK  113  A    between atoms: _315  and  _316
REMARK  114  A    between atoms: _318  and  _320
REMARK  115  A    between atoms: _320  and  _321
REMARK  116  A    between atoms: _320  and  _323
REMARK  117  A    between atoms: _323  and  _324
REMARK  118  A    between atoms: _327  and  _329
REMARK  119  A    between atoms: _329  and  _330
REMARK  120  A    between atoms: _329  and  _332
REMARK  121  A    between atoms: _332  and  _333
REMARK  122  A    between atoms: _336  and  _338
REMARK  123  A    between atoms: _338  and  _339
REMARK  124  A    between atoms: _338  and  _341
REMARK  125  A    between atoms: _341  and  _342
REMARK  126  A    between atoms: _346  and  _347
REMARK  127  A    between atoms: _353  and  _354
REMARK  128  A    between atoms: _359  and  _361
REMARK  129  A    between atoms: _361  and  _362
REMARK  130  A    between atoms: _361  and  _364
REMARK  131  A    between atoms: _364  and  _365
REMARK  132  A    between atoms: _368  and  _370
REMARK  133  A    between atoms: _370  and  _371
REMARK  134  A    between atoms: _370  and  _373
REMARK  135  A    between atoms: _373  and  _374
REMARK  136  A    between atoms: _377  and  _379
REMARK  137  A    between atoms: _379  and  _380
REMARK  138  A    between atoms: _379  and  _382
REMARK  139  A    between atoms: _384  and  _386
REMARK  140  A    between atoms: _386  and  _387
REMARK  141  A    between atoms: _386  and  _389
REMARK  142  A    between atoms: _392  and  _394
REMARK  143  A    between atoms: _394  and  _395
REMARK  144  A    between atoms: _394  and  _397
REMARK  145  A    between atoms: _397  and  _398
REMARK  146  A    between atoms: _408  and  _410
REMARK  147  A    between atoms: _410  and  _411
REMARK  148  A    between atoms: _410  and  _413
REMARK  149  A    between atoms: _413  and  _414
REMARK  150  A    between atoms: _419  and  _421
REMARK  151  A    between atoms: _421  and  _422
REMARK  152  A    between atoms: _421  and  _424
REMARK  153  A    between atoms: _424  and  _425
REMARK  154  A    between atoms: _425  and  _426
REMARK  155  A    between atoms: _426  and  _427
REMARK                            x       y       z     vdW  Elec       q    Type
REMARK                         _______ _______ _______ _____ _____    ______ ____
ROOT
ATOM      1  O   HOH     1      14.904   7.352  12.088  0.00  0.00    +0.000 OA
ENDROOT
TORSDOF 0
REMARK  Name = ../refined-set-2016/5byi/5byi_pocket.pdb
REMARK  155 active torsions:
REMARK  status: ('A' for Active; 'I' for Inactive)
REMARK    1  A    between atoms: _1  and  _3
REMARK    2  A    between atoms: _3  and  _4
REMARK    3  A    between atoms: _3  and  _6
REMARK    4  A    between atoms: _6  and  _7
REMARK    5  A    between atoms: _17  and  _19
REMARK    6  A    between atoms: _19  and  _20
REMARK    7  A    between atoms: _19  and  _22
REMARK    8  A    between atoms: _22  and  _23
REMARK    9  A    between atoms: _28  and  _29
REMARK   10  A    between atoms: _31  and  _33
REMARK   11  A    between atoms: _33  and  _34
REMARK   12  A    between atoms: _33  and  _36
REMARK   13  A    between atoms: _36  and  _37
REMARK   14  A    between atoms: _43  and  _45
REMARK   15  A    between atoms: _45  and  _46
REMARK   16  A    between atoms: _45  and  _48
REMARK   17  A    between atoms: _48  and  _49
REMARK   18  A    between atoms: _52  and  _53
REMARK   19  A    between atoms: _58  and  _60
REMARK   20  A    between atoms: _60  and  _61
REMARK   21  A    between atoms: _60  and  _63
REMARK   22  A    between atoms: _63  and  _64
REMARK   23  A    between atoms: _69  and  _71
REMARK   24  A    between atoms: _71  and  _72
REMARK   25  A    between atoms: _71  and  _74
REMARK   26  A    between atoms: _74  and  _75
REMARK   27  A    between atoms: _80  and  _82
REMARK   28  A    between atoms: _82  and  _83
REMARK   29  A    between atoms: _86  and  _88
REMARK   30  A    between atoms: _88  and  _89
REMARK   31  A    between atoms: _88  and  _91
REMARK   32  A    between atoms: _91  and  _92
REMARK   33  A    between atoms: _97  and  _99
REMARK   34  A    between atoms: _99  and  _100
REMARK   35  A    between atoms: _99  and  _102
REMARK   36  A    between atoms: _102  and  _103
REMARK   37  A    between atoms: _106  and  _108
REMARK   38  A    between atoms: _108  and  _109
REMARK   39  A    between atoms: _108  and  _111
REMARK   40  A    between atoms: _111  and  _112
REMARK   41  A    between atoms: _112  and  _113
REMARK   42  A    between atoms: _118  and  _120
REMARK   43  A    between atoms: _120  and  _121
REMARK   44  A    between atoms: _120  and  _123
REMARK   45  A    between atoms: _123  and  _124
REMARK   46  A    between atoms: _130  and  _132
REMARK   47  A    between atoms: _143  and  _146
REMARK   48  A    between atoms: _146  and  _147
REMARK   49  A    between atoms: _155  and  _156
REMARK   50  A    between atoms: _164  and  _166
REMARK   51  A    between atoms: _166  and  _167
REMARK   52  A    between atoms: _166  and  _169
REMARK   53  A    between atoms: _169  and  _170
REMARK   54  A    between atoms: _170  and  _171
REMARK   55  A    between atoms: _174  and  _176
REMARK   56  A    between atoms: _176  and  _177
REMARK   57  A    between atoms: _176  and  _179
REMARK   58  A    between atoms: _179  and  _180
REMARK   59  A    between atoms: _185  and  _187
REMARK   60  A    between atoms: _187  and  _188
REMARK   61  A    between atoms: _187  and  _190
REMARK   62  A    between atoms: _190  and  _191
REMARK   63  A    between atoms: _191  and  _192
REMARK   64  A    between atoms: _195  and  _197
REMARK   65  A    between atoms: _197  and  _198
REMARK   66  A    between atoms: _197  and  _200
REMARK   67  A    between atoms: _200  and  _201
REMARK   68  A    between atoms: _204  and  _206
REMARK   69  A    between atoms: _206  and  _207
REMARK   70  A    between atoms: _206  and  _209
REMARK   71  A    between atoms: _209  and  _210
REMARK   72  A    between atoms: _211  and  ZN_436
REMARK   73  A    between atoms: _215  and  _217
REMARK   74  A    between atoms: _217  and  _218
REMARK   75  A    between atoms: _217  and  _220
REMARK   76  A    between atoms: _220  and  _221
REMARK   77  A    between atoms: _224  and  _226
REMARK   78  A    between atoms: _226  and  _227
REMARK   79  A    between atoms: _226  and  _229
REMARK   80  A    between atoms: _232  and  _234
REMARK   81  A    between atoms: _234  and  _235
REMARK   82  A    between atoms: _234  and  _237
REMARK   83  A    between atoms: _237  and  _238
REMARK   84  A    between atoms: _243  and  _245
REMARK   85  A    between atoms: _245  and  _246
REMARK   86  A    between atoms: _245  and  _248
REMARK   87  A    between atoms: _248  and  _249
REMARK   88  A    between atoms: _255  and  _257
REMARK   89  A    between atoms: _257  and  _258
REMARK   90  A    between atoms: _260  and  _262
REMARK   91  A    between atoms: _262  and  _263
REMARK   92  A    between atoms: _262  and  _265
REMARK   93  A    between atoms: _268  and  _270
REMARK   94  A    between atoms: _270  and  _271
REMARK   95  A    between atoms: _270  and  _273
REMARK   96  A    between atoms: _273  and  _274
REMARK   97  A    between atoms: _277  and  _279
REMARK   98  A    between atoms: _279  and  _280
REMARK   99  A    between atoms: _283  and  _285
REMARK  100  A    between atoms: _285  and  _286
REMARK  101  A    between atoms: _285  and  _288
REMARK  102  A    between atoms: _291  and  _293
REMARK  103  A    between atoms: _293  and  _294
REMARK  104  A    between atoms: _293  and  _296
REMARK  105  A    between atoms: _296  and  _297
REMARK  106  A    between atoms: _300  and  _302
REMARK  107  A    between atoms: _302  and  _303
REMARK  108  A    between atoms: _305  and  _307
REMARK  109  A    between atoms: _307  and  _308
REMARK  110  A    between atoms: _310  and  _312
REMARK  111  A    between atoms: _312  and  _313
REMARK  112  A    between atoms: _312  and  _315
REMARK  113  A    between atoms: _315  and  _316
REMARK  114  A    between atoms: _318  and  _320
REMARK  115  A    between atoms: _320  and  _321
REMARK  116  A    between atoms: _320  and  _323
REMARK  117  A    between atoms: _323  and  _324
REMARK  118  A    between atoms: _327  and  _329
REMARK  119  A    between atoms: _329  and  _330
REMARK  120  A    between atoms: _329  and  _332
REMARK  121  A    between atoms: _332  and  _333
REMARK  122  A    between atoms: _336  and  _338
REMARK  123  A    between atoms: _338  and  _339
REMARK  124  A    between atoms: _338  and  _341
REMARK  125  A    between atoms: _341  and  _342
REMARK  126  A    between atoms: _346  and  _347
REMARK  127  A    between atoms: _353  and  _354
REMARK  128  A    between atoms: _359  and  _361
REMARK  129  A    between atoms: _361  and  _362
REMARK  130  A    between atoms: _361  and  _364
REMARK  131  A    between atoms: _364  and  _365
REMARK  132  A    between atoms: _368  and  _370
REMARK  133  A    between atoms: _370  and  _371
REMARK  134  A    between atoms: _370  and  _373
REMARK  135  A    between atoms: _373  and  _374
REMARK  136  A    between atoms: _377  and  _379
REMARK  137  A    between atoms: _379  and  _380
REMARK  138  A    between atoms: _379  and  _382
REMARK  139  A    between atoms: _384  and  _386
REMARK  140  A    between atoms: _386  and  _387
REMARK  141  A    between atoms: _386  and  _389
REMARK  142  A    between atoms: _392  and  _394
REMARK  143  A    between atoms: _394  and  _395
REMARK  144  A    between atoms: _394  and  _397
REMARK  145  A    between atoms: _397  and  _398
REMARK  146  A    between atoms: _408  and  _410
REMARK  147  A    between atoms: _410  and  _411
REMARK  148  A    between atoms: _410  and  _413
REMARK  149  A    between atoms: _413  and  _414
REMARK  150  A    between atoms: _419  and  _421
REMARK  151  A    between atoms: _421  and  _422
REMARK  152  A    between atoms: _421  and  _424
REMARK  153  A    between atoms: _424  and  _425
REMARK  154  A    between atoms: _425  and  _426
REMARK  155  A    between atoms: _426  and  _427
REMARK                            x       y       z     vdW  Elec       q    Type
REMARK                         _______ _______ _______ _____ _____    ______ ____
ROOT
ATOM      1  O   HOH     1      15.746   3.036  12.068  0.00  0.00    +0.000 OA
ENDROOT
TORSDOF 0
REMARK  Name = ../refined-set-2016/5byi/5byi_pocket.pdb
REMARK  155 active torsions:
REMARK  status: ('A' for Active; 'I' for Inactive)
REMARK    1  A    between atoms: _1  and  _3
REMARK    2  A    between atoms: _3  and  _4
REMARK    3  A    between atoms: _3  and  _6
REMARK    4  A    between atoms: _6  and  _7
REMARK    5  A    between atoms: _17  and  _19
REMARK    6  A    between atoms: _19  and  _20
REMARK    7  A    between atoms: _19  and  _22
REMARK    8  A    between atoms: _22  and  _23
REMARK    9  A    between atoms: _28  and  _29
REMARK   10  A    between atoms: _31  and  _33
REMARK   11  A    between atoms: _33  and  _34
REMARK   12  A    between atoms: _33  and  _36
REMARK   13  A    between atoms: _36  and  _37
REMARK   14  A    between atoms: _43  and  _45
REMARK   15  A    between atoms: _45  and  _46
REMARK   16  A    between atoms: _45  and  _48
REMARK   17  A    between atoms: _48  and  _49
REMARK   18  A    between atoms: _52  and  _53
REMARK   19  A    between atoms: _58  and  _60
REMARK   20  A    between atoms: _60  and  _61
REMARK   21  A    between atoms: _60  and  _63
REMARK   22  A    between atoms: _63  and  _64
REMARK   23  A    between atoms: _69  and  _71
REMARK   24  A    between atoms: _71  and  _72
REMARK   25  A    between atoms: _71  and  _74
REMARK   26  A    between atoms: _74  and  _75
REMARK   27  A    between atoms: _80  and  _82
REMARK   28  A    between atoms: _82  and  _83
REMARK   29  A    between atoms: _86  and  _88
REMARK   30  A    between atoms: _88  and  _89
REMARK   31  A    between atoms: _88  and  _91
REMARK   32  A    between atoms: _91  and  _92
REMARK   33  A    between atoms: _97  and  _99
REMARK   34  A    between atoms: _99  and  _100
REMARK   35  A    between atoms: _99  and  _102
REMARK   36  A    between atoms: _102  and  _103
REMARK   37  A    between atoms: _106  and  _108
REMARK   38  A    between atoms: _108  and  _109
REMARK   39  A    between atoms: _108  and  _111
REMARK   40  A    between atoms: _111  and  _112
REMARK   41  A    between atoms: _112  and  _113
REMARK   42  A    between atoms: _118  and  _120
REMARK   43  A    between atoms: _120  and  _121
REMARK   44  A    between atoms: _120  and  _123
REMARK   45  A    between atoms: _123  and  _124
REMARK   46  A    between atoms: _130  and  _132
REMARK   47  A    between atoms: _143  and  _146
REMARK   48  A    between atoms: _146  and  _147
REMARK   49  A    between atoms: _155  and  _156
REMARK   50  A    between atoms: _164  and  _166
REMARK   51  A    between atoms: _166  and  _167
REMARK   52  A    between atoms: _166  and  _169
REMARK   53  A    between atoms: _169  and  _170
REMARK   54  A    between atoms: _170  and  _171
REMARK   55  A    between atoms: _174  and  _176
REMARK   56  A    between atoms: _176  and  _177
REMARK   57  A    between atoms: _176  and  _179
REMARK   58  A    between atoms: _179  and  _180
REMARK   59  A    between atoms: _185  and  _187
REMARK   60  A    between atoms: _187  and  _188
REMARK   61  A    between atoms: _187  and  _190
REMARK   62  A    between atoms: _190  and  _191
REMARK   63  A    between atoms: _191  and  _192
REMARK   64  A    between atoms: _195  and  _197
REMARK   65  A    between atoms: _197  and  _198
REMARK   66  A    between atoms: _197  and  _200
REMARK   67  A    between atoms: _200  and  _201
REMARK   68  A    between atoms: _204  and  _206
REMARK   69  A    between atoms: _206  and  _207
REMARK   70  A    between atoms: _206  and  _209
REMARK   71  A    between atoms: _209  and  _210
REMARK   72  A    between atoms: _211  and  ZN_436
REMARK   73  A    between atoms: _215  and  _217
REMARK   74  A    between atoms: _217  and  _218
REMARK   75  A    between atoms: _217  and  _220
REMARK   76  A    between atoms: _220  and  _221
REMARK   77  A    between atoms: _224  and  _226
REMARK   78  A    between atoms: _226  and  _227
REMARK   79  A    between atoms: _226  and  _229
REMARK   80  A    between atoms: _232  and  _234
REMARK   81  A    between atoms: _234  and  _235
REMARK   82  A    between atoms: _234  and  _237
REMARK   83  A    between atoms: _237  and  _238
REMARK   84  A    between atoms: _243  and  _245
REMARK   85  A    between atoms: _245  and  _246
REMARK   86  A    between atoms: _245  and  _248
REMARK   87  A    between atoms: _248  and  _249
REMARK   88  A    between atoms: _255  and  _257
REMARK   89  A    between atoms: _257  and  _258
REMARK   90  A    between atoms: _260  and  _262
REMARK   91  A    between atoms: _262  and  _263
REMARK   92  A    between atoms: _262  and  _265
REMARK   93  A    between atoms: _268  and  _270
REMARK   94  A    between atoms: _270  and  _271
REMARK   95  A    between atoms: _270  and  _273
REMARK   96  A    between atoms: _273  and  _274
REMARK   97  A    between atoms: _277  and  _279
REMARK   98  A    between atoms: _279  and  _280
REMARK   99  A    between atoms: _283  and  _285
REMARK  100  A    between atoms: _285  and  _286
REMARK  101  A    between atoms: _285  and  _288
REMARK  102  A    between atoms: _291  and  _293
REMARK  103  A    between atoms: _293  and  _294
REMARK  104  A    between atoms: _293  and  _296
REMARK  105  A    between atoms: _296  and  _297
REMARK  106  A    between atoms: _300  and  _302
REMARK  107  A    between atoms: _302  and  _303
REMARK  108  A    between atoms: _305  and  _307
REMARK  109  A    between atoms: _307  and  _308
REMARK  110  A    between atoms: _310  and  _312
REMARK  111  A    between atoms: _312  and  _313
REMARK  112  A    between atoms: _312  and  _315
REMARK  113  A    between atoms: _315  and  _316
REMARK  114  A    between atoms: _318  and  _320
REMARK  115  A    between atoms: _320  and  _321
REMARK  116  A    between atoms: _320  and  _323
REMARK  117  A    between atoms: _323  and  _324
REMARK  118  A    between atoms: _327  and  _329
REMARK  119  A    between atoms: _329  and  _330
REMARK  120  A    between atoms: _329  and  _332
REMARK  121  A    between atoms: _332  and  _333
REMARK  122  A    between atoms: _336  and  _338
REMARK  123  A    between atoms: _338  and  _339
REMARK  124  A    between atoms: _338  and  _341
REMARK  125  A    between atoms: _341  and  _342
REMARK  126  A    between atoms: _346  and  _347
REMARK  127  A    between atoms: _353  and  _354
REMARK  128  A    between atoms: _359  and  _361
REMARK  129  A    between atoms: _361  and  _362
REMARK  130  A    between atoms: _361  and  _364
REMARK  131  A    between atoms: _364  and  _365
REMARK  132  A    between atoms: _368  and  _370
REMARK  133  A    between atoms: _370  and  _371
REMARK  134  A    between atoms: _370  and  _373
REMARK  135  A    between atoms: _373  and  _374
REMARK  136  A    between atoms: _377  and  _379
REMARK  137  A    between atoms: _379  and  _380
REMARK  138  A    between atoms: _379  and  _382
REMARK  139  A    between atoms: _384  and  _386
REMARK  140  A    between atoms: _386  and  _387
REMARK  141  A    between atoms: _386  and  _389
REMARK  142  A    between atoms: _392  and  _394
REMARK  143  A    between atoms: _394  and  _395
REMARK  144  A    between atoms: _394  and  _397
REMARK  145  A    between atoms: _397  and  _398
REMARK  146  A    between atoms: _408  and  _410
REMARK  147  A    between atoms: _410  and  _411
REMARK  148  A    between atoms: _410  and  _413
REMARK  149  A    between atoms: _413  and  _414
REMARK  150  A    between atoms: _419  and  _421
REMARK  151  A    between atoms: _421  and  _422
REMARK  152  A    between atoms: _421  and  _424
REMARK  153  A    between atoms: _424  and  _425
REMARK  154  A    between atoms: _425  and  _426
REMARK  155  A    between atoms: _426  and  _427
REMARK                            x       y       z     vdW  Elec       q    Type
REMARK                         _______ _______ _______ _____ _____    ______ ____
ROOT
ATOM      1  O   HOH     1      16.955   6.508   9.538  0.00  0.00    +0.000 OA
ENDROOT
TORSDOF 0
REMARK  Name = ../refined-set-2016/5byi/5byi_pocket.pdb
REMARK  155 active torsions:
REMARK  status: ('A' for Active; 'I' for Inactive)
REMARK    1  A    between atoms: _1  and  _3
REMARK    2  A    between atoms: _3  and  _4
REMARK    3  A    between atoms: _3  and  _6
REMARK    4  A    between atoms: _6  and  _7
REMARK    5  A    between atoms: _17  and  _19
REMARK    6  A    between atoms: _19  and  _20
REMARK    7  A    between atoms: _19  and  _22
REMARK    8  A    between atoms: _22  and  _23
REMARK    9  A    between atoms: _28  and  _29
REMARK   10  A    between atoms: _31  and  _33
REMARK   11  A    between atoms: _33  and  _34
REMARK   12  A    between atoms: _33  and  _36
REMARK   13  A    between atoms: _36  and  _37
REMARK   14  A    between atoms: _43  and  _45
REMARK   15  A    between atoms: _45  and  _46
REMARK   16  A    between atoms: _45  and  _48
REMARK   17  A    between atoms: _48  and  _49
REMARK   18  A    between atoms: _52  and  _53
REMARK   19  A    between atoms: _58  and  _60
REMARK   20  A    between atoms: _60  and  _61
REMARK   21  A    between atoms: _60  and  _63
REMARK   22  A    between atoms: _63  and  _64
REMARK   23  A    between atoms: _69  and  _71
REMARK   24  A    between atoms: _71  and  _72
REMARK   25  A    between atoms: _71  and  _74
REMARK   26  A    between atoms: _74  and  _75
REMARK   27  A    between atoms: _80  and  _82
REMARK   28  A    between atoms: _82  and  _83
REMARK   29  A    between atoms: _86  and  _88
REMARK   30  A    between atoms: _88  and  _89
REMARK   31  A    between atoms: _88  and  _91
REMARK   32  A    between atoms: _91  and  _92
REMARK   33  A    between atoms: _97  and  _99
REMARK   34  A    between atoms: _99  and  _100
REMARK   35  A    between atoms: _99  and  _102
REMARK   36  A    between atoms: _102  and  _103
REMARK   37  A    between atoms: _106  and  _108
REMARK   38  A    between atoms: _108  and  _109
REMARK   39  A    between atoms: _108  and  _111
REMARK   40  A    between atoms: _111  and  _112
REMARK   41  A    between atoms: _112  and  _113
REMARK   42  A    between atoms: _118  and  _120
REMARK   43  A    between atoms: _120  and  _121
REMARK   44  A    between atoms: _120  and  _123
REMARK   45  A    between atoms: _123  and  _124
REMARK   46  A    between atoms: _130  and  _132
REMARK   47  A    between atoms: _143  and  _146
REMARK   48  A    between atoms: _146  and  _147
REMARK   49  A    between atoms: _155  and  _156
REMARK   50  A    between atoms: _164  and  _166
REMARK   51  A    between atoms: _166  and  _167
REMARK   52  A    between atoms: _166  and  _169
REMARK   53  A    between atoms: _169  and  _170
REMARK   54  A    between atoms: _170  and  _171
REMARK   55  A    between atoms: _174  and  _176
REMARK   56  A    between atoms: _176  and  _177
REMARK   57  A    between atoms: _176  and  _179
REMARK   58  A    between atoms: _179  and  _180
REMARK   59  A    between atoms: _185  and  _187
REMARK   60  A    between atoms: _187  and  _188
REMARK   61  A    between atoms: _187  and  _190
REMARK   62  A    between atoms: _190  and  _191
REMARK   63  A    between atoms: _191  and  _192
REMARK   64  A    between atoms: _195  and  _197
REMARK   65  A    between atoms: _197  and  _198
REMARK   66  A    between atoms: _197  and  _200
REMARK   67  A    between atoms: _200  and  _201
REMARK   68  A    between atoms: _204  and  _206
REMARK   69  A    between atoms: _206  and  _207
REMARK   70  A    between atoms: _206  and  _209
REMARK   71  A    between atoms: _209  and  _210
REMARK   72  A    between atoms: _211  and  ZN_436
REMARK   73  A    between atoms: _215  and  _217
REMARK   74  A    between atoms: _217  and  _218
REMARK   75  A    between atoms: _217  and  _220
REMARK   76  A    between atoms: _220  and  _221
REMARK   77  A    between atoms: _224  and  _226
REMARK   78  A    between atoms: _226  and  _227
REMARK   79  A    between atoms: _226  and  _229
REMARK   80  A    between atoms: _232  and  _234
REMARK   81  A    between atoms: _234  and  _235
REMARK   82  A    between atoms: _234  and  _237
REMARK   83  A    between atoms: _237  and  _238
REMARK   84  A    between atoms: _243  and  _245
REMARK   85  A    between atoms: _245  and  _246
REMARK   86  A    between atoms: _245  and  _248
REMARK   87  A    between atoms: _248  and  _249
REMARK   88  A    between atoms: _255  and  _257
REMARK   89  A    between atoms: _257  and  _258
REMARK   90  A    between atoms: _260  and  _262
REMARK   91  A    between atoms: _262  and  _263
REMARK   92  A    between atoms: _262  and  _265
REMARK   93  A    between atoms: _268  and  _270
REMARK   94  A    between atoms: _270  and  _271
REMARK   95  A    between atoms: _270  and  _273
REMARK   96  A    between atoms: _273  and  _274
REMARK   97  A    between atoms: _277  and  _279
REMARK   98  A    between atoms: _279  and  _280
REMARK   99  A    between atoms: _283  and  _285
REMARK  100  A    between atoms: _285  and  _286
REMARK  101  A    between atoms: _285  and  _288
REMARK  102  A    between atoms: _291  and  _293
REMARK  103  A    between atoms: _293  and  _294
REMARK  104  A    between atoms: _293  and  _296
REMARK  105  A    between atoms: _296  and  _297
REMARK  106  A    between atoms: _300  and  _302
REMARK  107  A    between atoms: _302  and  _303
REMARK  108  A    between atoms: _305  and  _307
REMARK  109  A    between atoms: _307  and  _308
REMARK  110  A    between atoms: _310  and  _312
REMARK  111  A    between atoms: _312  and  _313
REMARK  112  A    between atoms: _312  and  _315
REMARK  113  A    between atoms: _315  and  _316
REMARK  114  A    between atoms: _318  and  _320
REMARK  115  A    between atoms: _320  and  _321
REMARK  116  A    between atoms: _320  and  _323
REMARK  117  A    between atoms: _323  and  _324
REMARK  118  A    between atoms: _327  and  _329
REMARK  119  A    between atoms: _329  and  _330
REMARK  120  A    between atoms: _329  and  _332
REMARK  121  A    between atoms: _332  and  _333
REMARK  122  A    between atoms: _336  and  _338
REMARK  123  A    between atoms: _338  and  _339
REMARK  124  A    between atoms: _338  and  _341
REMARK  125  A    between atoms: _341  and  _342
REMARK  126  A    between atoms: _346  and  _347
REMARK  127  A    between atoms: _353  and  _354
REMARK  128  A    between atoms: _359  and  _361
REMARK  129  A    between atoms: _361  and  _362
REMARK  130  A    between atoms: _361  and  _364
REMARK  131  A    between atoms: _364  and  _365
REMARK  132  A    between atoms: _368  and  _370
REMARK  133  A    between atoms: _370  and  _371
REMARK  134  A    between atoms: _370  and  _373
REMARK  135  A    between atoms: _373  and  _374
REMARK  136  A    between atoms: _377  and  _379
REMARK  137  A    between atoms: _379  and  _380
REMARK  138  A    between atoms: _379  and  _382
REMARK  139  A    between atoms: _384  and  _386
REMARK  140  A    between atoms: _386  and  _387
REMARK  141  A    between atoms: _386  and  _389
REMARK  142  A    between atoms: _392  and  _394
REMARK  143  A    between atoms: _394  and  _395
REMARK  144  A    between atoms: _394  and  _397
REMARK  145  A    between atoms: _397  and  _398
REMARK  146  A    between atoms: _408  and  _410
REMARK  147  A    between atoms: _410  and  _411
REMARK  148  A    between atoms: _410  and  _413
REMARK  149  A    between atoms: _413  and  _414
REMARK  150  A    between atoms: _419  and  _421
REMARK  151  A    between atoms: _421  and  _422
REMARK  152  A    between atoms: _421  and  _424
REMARK  153  A    between atoms: _424  and  _425
REMARK  154  A    between atoms: _425  and  _426
REMARK  155  A    between atoms: _426  and  _427
REMARK                            x       y       z     vdW  Elec       q    Type
REMARK                         _______ _______ _______ _____ _____    ______ ____
ROOT
ATOM      1  O   HOH     1      16.805  -0.598  11.539  0.00  0.00    +0.000 OA
ENDROOT
TORSDOF 0
REMARK  Name = ../refined-set-2016/5byi/5byi_pocket.pdb
REMARK  155 active torsions:
REMARK  status: ('A' for Active; 'I' for Inactive)
REMARK    1  A    between atoms: _1  and  _3
REMARK    2  A    between atoms: _3  and  _4
REMARK    3  A    between atoms: _3  and  _6
REMARK    4  A    between atoms: _6  and  _7
REMARK    5  A    between atoms: _17  and  _19
REMARK    6  A    between atoms: _19  and  _20
REMARK    7  A    between atoms: _19  and  _22
REMARK    8  A    between atoms: _22  and  _23
REMARK    9  A    between atoms: _28  and  _29
REMARK   10  A    between atoms: _31  and  _33
REMARK   11  A    between atoms: _33  and  _34
REMARK   12  A    between atoms: _33  and  _36
REMARK   13  A    between atoms: _36  and  _37
REMARK   14  A    between atoms: _43  and  _45
REMARK   15  A    between atoms: _45  and  _46
REMARK   16  A    between atoms: _45  and  _48
REMARK   17  A    between atoms: _48  and  _49
REMARK   18  A    between atoms: _52  and  _53
REMARK   19  A    between atoms: _58  and  _60
REMARK   20  A    between atoms: _60  and  _61
REMARK   21  A    between atoms: _60  and  _63
REMARK   22  A    between atoms: _63  and  _64
REMARK   23  A    between atoms: _69  and  _71
REMARK   24  A    between atoms: _71  and  _72
REMARK   25  A    between atoms: _71  and  _74
REMARK   26  A    between atoms: _74  and  _75
REMARK   27  A    between atoms: _80  and  _82
REMARK   28  A    between atoms: _82  and  _83
REMARK   29  A    between atoms: _86  and  _88
REMARK   30  A    between atoms: _88  and  _89
REMARK   31  A    between atoms: _88  and  _91
REMARK   32  A    between atoms: _91  and  _92
REMARK   33  A    between atoms: _97  and  _99
REMARK   34  A    between atoms: _99  and  _100
REMARK   35  A    between atoms: _99  and  _102
REMARK   36  A    between atoms: _102  and  _103
REMARK   37  A    between atoms: _106  and  _108
REMARK   38  A    between atoms: _108  and  _109
REMARK   39  A    between atoms: _108  and  _111
REMARK   40  A    between atoms: _111  and  _112
REMARK   41  A    between atoms: _112  and  _113
REMARK   42  A    between atoms: _118  and  _120
REMARK   43  A    between atoms: _120  and  _121
REMARK   44  A    between atoms: _120  and  _123
REMARK   45  A    between atoms: _123  and  _124
REMARK   46  A    between atoms: _130  and  _132
REMARK   47  A    between atoms: _143  and  _146
REMARK   48  A    between atoms: _146  and  _147
REMARK   49  A    between atoms: _155  and  _156
REMARK   50  A    between atoms: _164  and  _166
REMARK   51  A    between atoms: _166  and  _167
REMARK   52  A    between atoms: _166  and  _169
REMARK   53  A    between atoms: _169  and  _170
REMARK   54  A    between atoms: _170  and  _171
REMARK   55  A    between atoms: _174  and  _176
REMARK   56  A    between atoms: _176  and  _177
REMARK   57  A    between atoms: _176  and  _179
REMARK   58  A    between atoms: _179  and  _180
REMARK   59  A    between atoms: _185  and  _187
REMARK   60  A    between atoms: _187  and  _188
REMARK   61  A    between atoms: _187  and  _190
REMARK   62  A    between atoms: _190  and  _191
REMARK   63  A    between atoms: _191  and  _192
REMARK   64  A    between atoms: _195  and  _197
REMARK   65  A    between atoms: _197  and  _198
REMARK   66  A    between atoms: _197  and  _200
REMARK   67  A    between atoms: _200  and  _201
REMARK   68  A    between atoms: _204  and  _206
REMARK   69  A    between atoms: _206  and  _207
REMARK   70  A    between atoms: _206  and  _209
REMARK   71  A    between atoms: _209  and  _210
REMARK   72  A    between atoms: _211  and  ZN_436
REMARK   73  A    between atoms: _215  and  _217
REMARK   74  A    between atoms: _217  and  _218
REMARK   75  A    between atoms: _217  and  _220
REMARK   76  A    between atoms: _220  and  _221
REMARK   77  A    between atoms: _224  and  _226
REMARK   78  A    between atoms: _226  and  _227
REMARK   79  A    between atoms: _226  and  _229
REMARK   80  A    between atoms: _232  and  _234
REMARK   81  A    between atoms: _234  and  _235
REMARK   82  A    between atoms: _234  and  _237
REMARK   83  A    between atoms: _237  and  _238
REMARK   84  A    between atoms: _243  and  _245
REMARK   85  A    between atoms: _245  and  _246
REMARK   86  A    between atoms: _245  and  _248
REMARK   87  A    between atoms: _248  and  _249
REMARK   88  A    between atoms: _255  and  _257
REMARK   89  A    between atoms: _257  and  _258
REMARK   90  A    between atoms: _260  and  _262
REMARK   91  A    between atoms: _262  and  _263
REMARK   92  A    between atoms: _262  and  _265
REMARK   93  A    between atoms: _268  and  _270
REMARK   94  A    between atoms: _270  and  _271
REMARK   95  A    between atoms: _270  and  _273
REMARK   96  A    between atoms: _273  and  _274
REMARK   97  A    between atoms: _277  and  _279
REMARK   98  A    between atoms: _279  and  _280
REMARK   99  A    between atoms: _283  and  _285
REMARK  100  A    between atoms: _285  and  _286
REMARK  101  A    between atoms: _285  and  _288
REMARK  102  A    between atoms: _291  and  _293
REMARK  103  A    between atoms: _293  and  _294
REMARK  104  A    between atoms: _293  and  _296
REMARK  105  A    between atoms: _296  and  _297
REMARK  106  A    between atoms: _300  and  _302
REMARK  107  A    between atoms: _302  and  _303
REMARK  108  A    between atoms: _305  and  _307
REMARK  109  A    between atoms: _307  and  _308
REMARK  110  A    between atoms: _310  and  _312
REMARK  111  A    between atoms: _312  and  _313
REMARK  112  A    between atoms: _312  and  _315
REMARK  113  A    between atoms: _315  and  _316
REMARK  114  A    between atoms: _318  and  _320
REMARK  115  A    between atoms: _320  and  _321
REMARK  116  A    between atoms: _320  and  _323
REMARK  117  A    between atoms: _323  and  _324
REMARK  118  A    between atoms: _327  and  _329
REMARK  119  A    between atoms: _329  and  _330
REMARK  120  A    between atoms: _329  and  _332
REMARK  121  A    between atoms: _332  and  _333
REMARK  122  A    between atoms: _336  and  _338
REMARK  123  A    between atoms: _338  and  _339
REMARK  124  A    between atoms: _338  and  _341
REMARK  125  A    between atoms: _341  and  _342
REMARK  126  A    between atoms: _346  and  _347
REMARK  127  A    between atoms: _353  and  _354
REMARK  128  A    between atoms: _359  and  _361
REMARK  129  A    between atoms: _361  and  _362
REMARK  130  A    between atoms: _361  and  _364
REMARK  131  A    between atoms: _364  and  _365
REMARK  132  A    between atoms: _368  and  _370
REMARK  133  A    between atoms: _370  and  _371
REMARK  134  A    between atoms: _370  and  _373
REMARK  135  A    between atoms: _373  and  _374
REMARK  136  A    between atoms: _377  and  _379
REMARK  137  A    between atoms: _379  and  _380
REMARK  138  A    between atoms: _379  and  _382
REMARK  139  A    between atoms: _384  and  _386
REMARK  140  A    between atoms: _386  and  _387
REMARK  141  A    between atoms: _386  and  _389
REMARK  142  A    between atoms: _392  and  _394
REMARK  143  A    between atoms: _394  and  _395
REMARK  144  A    between atoms: _394  and  _397
REMARK  145  A    between atoms: _397  and  _398
REMARK  146  A    between atoms: _408  and  _410
REMARK  147  A    between atoms: _410  and  _411
REMARK  148  A    between atoms: _410  and  _413
REMARK  149  A    between atoms: _413  and  _414
REMARK  150  A    between atoms: _419  and  _421
REMARK  151  A    between atoms: _421  and  _422
REMARK  152  A    between atoms: _421  and  _424
REMARK  153  A    between atoms: _424  and  _425
REMARK  154  A    between atoms: _425  and  _426
REMARK  155  A    between atoms: _426  and  _427
REMARK                            x       y       z     vdW  Elec       q    Type
REMARK                         _______ _______ _______ _____ _____    ______ ____
ROOT
ATOM      1  O   HOH     1      23.930   3.560   7.795  0.00  0.00    +0.000 OA
ENDROOT
TORSDOF 0
REMARK  Name = ../refined-set-2016/5byi/5byi_pocket.pdb
REMARK  155 active torsions:
REMARK  status: ('A' for Active; 'I' for Inactive)
REMARK    1  A    between atoms: _1  and  _3
REMARK    2  A    between atoms: _3  and  _4
REMARK    3  A    between atoms: _3  and  _6
REMARK    4  A    between atoms: _6  and  _7
REMARK    5  A    between atoms: _17  and  _19
REMARK    6  A    between atoms: _19  and  _20
REMARK    7  A    between atoms: _19  and  _22
REMARK    8  A    between atoms: _22  and  _23
REMARK    9  A    between atoms: _28  and  _29
REMARK   10  A    between atoms: _31  and  _33
REMARK   11  A    between atoms: _33  and  _34
REMARK   12  A    between atoms: _33  and  _36
REMARK   13  A    between atoms: _36  and  _37
REMARK   14  A    between atoms: _43  and  _45
REMARK   15  A    between atoms: _45  and  _46
REMARK   16  A    between atoms: _45  and  _48
REMARK   17  A    between atoms: _48  and  _49
REMARK   18  A    between atoms: _52  and  _53
REMARK   19  A    between atoms: _58  and  _60
REMARK   20  A    between atoms: _60  and  _61
REMARK   21  A    between atoms: _60  and  _63
REMARK   22  A    between atoms: _63  and  _64
REMARK   23  A    between atoms: _69  and  _71
REMARK   24  A    between atoms: _71  and  _72
REMARK   25  A    between atoms: _71  and  _74
REMARK   26  A    between atoms: _74  and  _75
REMARK   27  A    between atoms: _80  and  _82
REMARK   28  A    between atoms: _82  and  _83
REMARK   29  A    between atoms: _86  and  _88
REMARK   30  A    between atoms: _88  and  _89
REMARK   31  A    between atoms: _88  and  _91
REMARK   32  A    between atoms: _91  and  _92
REMARK   33  A    between atoms: _97  and  _99
REMARK   34  A    between atoms: _99  and  _100
REMARK   35  A    between atoms: _99  and  _102
REMARK   36  A    between atoms: _102  and  _103
REMARK   37  A    between atoms: _106  and  _108
REMARK   38  A    between atoms: _108  and  _109
REMARK   39  A    between atoms: _108  and  _111
REMARK   40  A    between atoms: _111  and  _112
REMARK   41  A    between atoms: _112  and  _113
REMARK   42  A    between atoms: _118  and  _120
REMARK   43  A    between atoms: _120  and  _121
REMARK   44  A    between atoms: _120  and  _123
REMARK   45  A    between atoms: _123  and  _124
REMARK   46  A    between atoms: _130  and  _132
REMARK   47  A    between atoms: _143  and  _146
REMARK   48  A    between atoms: _146  and  _147
REMARK   49  A    between atoms: _155  and  _156
REMARK   50  A    between atoms: _164  and  _166
REMARK   51  A    between atoms: _166  and  _167
REMARK   52  A    between atoms: _166  and  _169
REMARK   53  A    between atoms: _169  and  _170
REMARK   54  A    between atoms: _170  and  _171
REMARK   55  A    between atoms: _174  and  _176
REMARK   56  A    between atoms: _176  and  _177
REMARK   57  A    between atoms: _176  and  _179
REMARK   58  A    between atoms: _179  and  _180
REMARK   59  A    between atoms: _185  and  _187
REMARK   60  A    between atoms: _187  and  _188
REMARK   61  A    between atoms: _187  and  _190
REMARK   62  A    between atoms: _190  and  _191
REMARK   63  A    between atoms: _191  and  _192
REMARK   64  A    between atoms: _195  and  _197
REMARK   65  A    between atoms: _197  and  _198
REMARK   66  A    between atoms: _197  and  _200
REMARK   67  A    between atoms: _200  and  _201
REMARK   68  A    between atoms: _204  and  _206
REMARK   69  A    between atoms: _206  and  _207
REMARK   70  A    between atoms: _206  and  _209
REMARK   71  A    between atoms: _209  and  _210
REMARK   72  A    between atoms: _211  and  ZN_436
REMARK   73  A    between atoms: _215  and  _217
REMARK   74  A    between atoms: _217  and  _218
REMARK   75  A    between atoms: _217  and  _220
REMARK   76  A    between atoms: _220  and  _221
REMARK   77  A    between atoms: _224  and  _226
REMARK   78  A    between atoms: _226  and  _227
REMARK   79  A    between atoms: _226  and  _229
REMARK   80  A    between atoms: _232  and  _234
REMARK   81  A    between atoms: _234  and  _235
REMARK   82  A    between atoms: _234  and  _237
REMARK   83  A    between atoms: _237  and  _238
REMARK   84  A    between atoms: _243  and  _245
REMARK   85  A    between atoms: _245  and  _246
REMARK   86  A    between atoms: _245  and  _248
REMARK   87  A    between atoms: _248  and  _249
REMARK   88  A    between atoms: _255  and  _257
REMARK   89  A    between atoms: _257  and  _258
REMARK   90  A    between atoms: _260  and  _262
REMARK   91  A    between atoms: _262  and  _263
REMARK   92  A    between atoms: _262  and  _265
REMARK   93  A    between atoms: _268  and  _270
REMARK   94  A    between atoms: _270  and  _271
REMARK   95  A    between atoms: _270  and  _273
REMARK   96  A    between atoms: _273  and  _274
REMARK   97  A    between atoms: _277  and  _279
REMARK   98  A    between atoms: _279  and  _280
REMARK   99  A    between atoms: _283  and  _285
REMARK  100  A    between atoms: _285  and  _286
REMARK  101  A    between atoms: _285  and  _288
REMARK  102  A    between atoms: _291  and  _293
REMARK  103  A    between atoms: _293  and  _294
REMARK  104  A    between atoms: _293  and  _296
REMARK  105  A    between atoms: _296  and  _297
REMARK  106  A    between atoms: _300  and  _302
REMARK  107  A    between atoms: _302  and  _303
REMARK  108  A    between atoms: _305  and  _307
REMARK  109  A    between atoms: _307  and  _308
REMARK  110  A    between atoms: _310  and  _312
REMARK  111  A    between atoms: _312  and  _313
REMARK  112  A    between atoms: _312  and  _315
REMARK  113  A    between atoms: _315  and  _316
REMARK  114  A    between atoms: _318  and  _320
REMARK  115  A    between atoms: _320  and  _321
REMARK  116  A    between atoms: _320  and  _323
REMARK  117  A    between atoms: _323  and  _324
REMARK  118  A    between atoms: _327  and  _329
REMARK  119  A    between atoms: _329  and  _330
REMARK  120  A    between atoms: _329  and  _332
REMARK  121  A    between atoms: _332  and  _333
REMARK  122  A    between atoms: _336  and  _338
REMARK  123  A    between atoms: _338  and  _339
REMARK  124  A    between atoms: _338  and  _341
REMARK  125  A    between atoms: _341  and  _342
REMARK  126  A    between atoms: _346  and  _347
REMARK  127  A    between atoms: _353  and  _354
REMARK  128  A    between atoms: _359  and  _361
REMARK  129  A    between atoms: _361  and  _362
REMARK  130  A    between atoms: _361  and  _364
REMARK  131  A    between atoms: _364  and  _365
REMARK  132  A    between atoms: _368  and  _370
REMARK  133  A    between atoms: _370  and  _371
REMARK  134  A    between atoms: _370  and  _373
REMARK  135  A    between atoms: _373  and  _374
REMARK  136  A    between atoms: _377  and  _379
REMARK  137  A    between atoms: _379  and  _380
REMARK  138  A    between atoms: _379  and  _382
REMARK  139  A    between atoms: _384  and  _386
REMARK  140  A    between atoms: _386  and  _387
REMARK  141  A    between atoms: _386  and  _389
REMARK  142  A    between atoms: _392  and  _394
REMARK  143  A    between atoms: _394  and  _395
REMARK  144  A    between atoms: _394  and  _397
REMARK  145  A    between atoms: _397  and  _398
REMARK  146  A    between atoms: _408  and  _410
REMARK  147  A    between atoms: _410  and  _411
REMARK  148  A    between atoms: _410  and  _413
REMARK  149  A    between atoms: _413  and  _414
REMARK  150  A    between atoms: _419  and  _421
REMARK  151  A    between atoms: _421  and  _422
REMARK  152  A    between atoms: _421  and  _424
REMARK  153  A    between atoms: _424  and  _425
REMARK  154  A    between atoms: _425  and  _426
REMARK  155  A    between atoms: _426  and  _427
REMARK                            x       y       z     vdW  Elec       q    Type
REMARK                         _______ _______ _______ _____ _____    ______ ____
ROOT
ATOM      1  O   HOH     1      12.903   8.475   8.658  0.00  0.00    +0.000 OA
ENDROOT
TORSDOF 0
REMARK  Name = ../refined-set-2016/5byi/5byi_pocket.pdb
REMARK  155 active torsions:
REMARK  status: ('A' for Active; 'I' for Inactive)
REMARK    1  A    between atoms: _1  and  _3
REMARK    2  A    between atoms: _3  and  _4
REMARK    3  A    between atoms: _3  and  _6
REMARK    4  A    between atoms: _6  and  _7
REMARK    5  A    between atoms: _17  and  _19
REMARK    6  A    between atoms: _19  and  _20
REMARK    7  A    between atoms: _19  and  _22
REMARK    8  A    between atoms: _22  and  _23
REMARK    9  A    between atoms: _28  and  _29
REMARK   10  A    between atoms: _31  and  _33
REMARK   11  A    between atoms: _33  and  _34
REMARK   12  A    between atoms: _33  and  _36
REMARK   13  A    between atoms: _36  and  _37
REMARK   14  A    between atoms: _43  and  _45
REMARK   15  A    between atoms: _45  and  _46
REMARK   16  A    between atoms: _45  and  _48
REMARK   17  A    between atoms: _48  and  _49
REMARK   18  A    between atoms: _52  and  _53
REMARK   19  A    between atoms: _58  and  _60
REMARK   20  A    between atoms: _60  and  _61
REMARK   21  A    between atoms: _60  and  _63
REMARK   22  A    between atoms: _63  and  _64
REMARK   23  A    between atoms: _69  and  _71
REMARK   24  A    between atoms: _71  and  _72
REMARK   25  A    between atoms: _71  and  _74
REMARK   26  A    between atoms: _74  and  _75
REMARK   27  A    between atoms: _80  and  _82
REMARK   28  A    between atoms: _82  and  _83
REMARK   29  A    between atoms: _86  and  _88
REMARK   30  A    between atoms: _88  and  _89
REMARK   31  A    between atoms: _88  and  _91
REMARK   32  A    between atoms: _91  and  _92
REMARK   33  A    between atoms: _97  and  _99
REMARK   34  A    between atoms: _99  and  _100
REMARK   35  A    between atoms: _99  and  _102
REMARK   36  A    between atoms: _102  and  _103
REMARK   37  A    between atoms: _106  and  _108
REMARK   38  A    between atoms: _108  and  _109
REMARK   39  A    between atoms: _108  and  _111
REMARK   40  A    between atoms: _111  and  _112
REMARK   41  A    between atoms: _112  and  _113
REMARK   42  A    between atoms: _118  and  _120
REMARK   43  A    between atoms: _120  and  _121
REMARK   44  A    between atoms: _120  and  _123
REMARK   45  A    between atoms: _123  and  _124
REMARK   46  A    between atoms: _130  and  _132
REMARK   47  A    between atoms: _143  and  _146
REMARK   48  A    between atoms: _146  and  _147
REMARK   49  A    between atoms: _155  and  _156
REMARK   50  A    between atoms: _164  and  _166
REMARK   51  A    between atoms: _166  and  _167
REMARK   52  A    between atoms: _166  and  _169
REMARK   53  A    between atoms: _169  and  _170
REMARK   54  A    between atoms: _170  and  _171
REMARK   55  A    between atoms: _174  and  _176
REMARK   56  A    between atoms: _176  and  _177
REMARK   57  A    between atoms: _176  and  _179
REMARK   58  A    between atoms: _179  and  _180
REMARK   59  A    between atoms: _185  and  _187
REMARK   60  A    between atoms: _187  and  _188
REMARK   61  A    between atoms: _187  and  _190
REMARK   62  A    between atoms: _190  and  _191
REMARK   63  A    between atoms: _191  and  _192
REMARK   64  A    between atoms: _195  and  _197
REMARK   65  A    between atoms: _197  and  _198
REMARK   66  A    between atoms: _197  and  _200
REMARK   67  A    between atoms: _200  and  _201
REMARK   68  A    between atoms: _204  and  _206
REMARK   69  A    between atoms: _206  and  _207
REMARK   70  A    between atoms: _206  and  _209
REMARK   71  A    between atoms: _209  and  _210
REMARK   72  A    between atoms: _211  and  ZN_436
REMARK   73  A    between atoms: _215  and  _217
REMARK   74  A    between atoms: _217  and  _218
REMARK   75  A    between atoms: _217  and  _220
REMARK   76  A    between atoms: _220  and  _221
REMARK   77  A    between atoms: _224  and  _226
REMARK   78  A    between atoms: _226  and  _227
REMARK   79  A    between atoms: _226  and  _229
REMARK   80  A    between atoms: _232  and  _234
REMARK   81  A    between atoms: _234  and  _235
REMARK   82  A    between atoms: _234  and  _237
REMARK   83  A    between atoms: _237  and  _238
REMARK   84  A    between atoms: _243  and  _245
REMARK   85  A    between atoms: _245  and  _246
REMARK   86  A    between atoms: _245  and  _248
REMARK   87  A    between atoms: _248  and  _249
REMARK   88  A    between atoms: _255  and  _257
REMARK   89  A    between atoms: _257  and  _258
REMARK   90  A    between atoms: _260  and  _262
REMARK   91  A    between atoms: _262  and  _263
REMARK   92  A    between atoms: _262  and  _265
REMARK   93  A    between atoms: _268  and  _270
REMARK   94  A    between atoms: _270  and  _271
REMARK   95  A    between atoms: _270  and  _273
REMARK   96  A    between atoms: _273  and  _274
REMARK   97  A    between atoms: _277  and  _279
REMARK   98  A    between atoms: _279  and  _280
REMARK   99  A    between atoms: _283  and  _285
REMARK  100  A    between atoms: _285  and  _286
REMARK  101  A    between atoms: _285  and  _288
REMARK  102  A    between atoms: _291  and  _293
REMARK  103  A    between atoms: _293  and  _294
REMARK  104  A    between atoms: _293  and  _296
REMARK  105  A    between atoms: _296  and  _297
REMARK  106  A    between atoms: _300  and  _302
REMARK  107  A    between atoms: _302  and  _303
REMARK  108  A    between atoms: _305  and  _307
REMARK  109  A    between atoms: _307  and  _308
REMARK  110  A    between atoms: _310  and  _312
REMARK  111  A    between atoms: _312  and  _313
REMARK  112  A    between atoms: _312  and  _315
REMARK  113  A    between atoms: _315  and  _316
REMARK  114  A    between atoms: _318  and  _320
REMARK  115  A    between atoms: _320  and  _321
REMARK  116  A    between atoms: _320  and  _323
REMARK  117  A    between atoms: _323  and  _324
REMARK  118  A    between atoms: _327  and  _329
REMARK  119  A    between atoms: _329  and  _330
REMARK  120  A    between atoms: _329  and  _332
REMARK  121  A    between atoms: _332  and  _333
REMARK  122  A    between atoms: _336  and  _338
REMARK  123  A    between atoms: _338  and  _339
REMARK  124  A    between atoms: _338  and  _341
REMARK  125  A    between atoms: _341  and  _342
REMARK  126  A    between atoms: _346  and  _347
REMARK  127  A    between atoms: _353  and  _354
REMARK  128  A    between atoms: _359  and  _361
REMARK  129  A    between atoms: _361  and  _362
REMARK  130  A    between atoms: _361  and  _364
REMARK  131  A    between atoms: _364  and  _365
REMARK  132  A    between atoms: _368  and  _370
REMARK  133  A    between atoms: _370  and  _371
REMARK  134  A    between atoms: _370  and  _373
REMARK  135  A    between atoms: _373  and  _374
REMARK  136  A    between atoms: _377  and  _379
REMARK  137  A    between atoms: _379  and  _380
REMARK  138  A    between atoms: _379  and  _382
REMARK  139  A    between atoms: _384  and  _386
REMARK  140  A    between atoms: _386  and  _387
REMARK  141  A    between atoms: _386  and  _389
REMARK  142  A    between atoms: _392  and  _394
REMARK  143  A    between atoms: _394  and  _395
REMARK  144  A    between atoms: _394  and  _397
REMARK  145  A    between atoms: _397  and  _398
REMARK  146  A    between atoms: _408  and  _410
REMARK  147  A    between atoms: _410  and  _411
REMARK  148  A    between atoms: _410  and  _413
REMARK  149  A    between atoms: _413  and  _414
REMARK  150  A    between atoms: _419  and  _421
REMARK  151  A    between atoms: _421  and  _422
REMARK  152  A    between atoms: _421  and  _424
REMARK  153  A    between atoms: _424  and  _425
REMARK  154  A    between atoms: _425  and  _426
REMARK  155  A    between atoms: _426  and  _427
REMARK                            x       y       z     vdW  Elec       q    Type
REMARK                         _______ _______ _______ _____ _____    ______ ____
ROOT
ATOM      1  O   HOH     1      26.241   5.370   7.958  0.00  0.00    +0.000 OA
ENDROOT
TORSDOF 0
REMARK  Name = ../refined-set-2016/5byi/5byi_pocket.pdb
REMARK  155 active torsions:
REMARK  status: ('A' for Active; 'I' for Inactive)
REMARK    1  A    between atoms: _1  and  _3
REMARK    2  A    between atoms: _3  and  _4
REMARK    3  A    between atoms: _3  and  _6
REMARK    4  A    between atoms: _6  and  _7
REMARK    5  A    between atoms: _17  and  _19
REMARK    6  A    between atoms: _19  and  _20
REMARK    7  A    between atoms: _19  and  _22
REMARK    8  A    between atoms: _22  and  _23
REMARK    9  A    between atoms: _28  and  _29
REMARK   10  A    between atoms: _31  and  _33
REMARK   11  A    between atoms: _33  and  _34
REMARK   12  A    between atoms: _33  and  _36
REMARK   13  A    between atoms: _36  and  _37
REMARK   14  A    between atoms: _43  and  _45
REMARK   15  A    between atoms: _45  and  _46
REMARK   16  A    between atoms: _45  and  _48
REMARK   17  A    between atoms: _48  and  _49
REMARK   18  A    between atoms: _52  and  _53
REMARK   19  A    between atoms: _58  and  _60
REMARK   20  A    between atoms: _60  and  _61
REMARK   21  A    between atoms: _60  and  _63
REMARK   22  A    between atoms: _63  and  _64
REMARK   23  A    between atoms: _69  and  _71
REMARK   24  A    between atoms: _71  and  _72
REMARK   25  A    between atoms: _71  and  _74
REMARK   26  A    between atoms: _74  and  _75
REMARK   27  A    between atoms: _80  and  _82
REMARK   28  A    between atoms: _82  and  _83
REMARK   29  A    between atoms: _86  and  _88
REMARK   30  A    between atoms: _88  and  _89
REMARK   31  A    between atoms: _88  and  _91
REMARK   32  A    between atoms: _91  and  _92
REMARK   33  A    between atoms: _97  and  _99
REMARK   34  A    between atoms: _99  and  _100
REMARK   35  A    between atoms: _99  and  _102
REMARK   36  A    between atoms: _102  and  _103
REMARK   37  A    between atoms: _106  and  _108
REMARK   38  A    between atoms: _108  and  _109
REMARK   39  A    between atoms: _108  and  _111
REMARK   40  A    between atoms: _111  and  _112
REMARK   41  A    between atoms: _112  and  _113
REMARK   42  A    between atoms: _118  and  _120
REMARK   43  A    between atoms: _120  and  _121
REMARK   44  A    between atoms: _120  and  _123
REMARK   45  A    between atoms: _123  and  _124
REMARK   46  A    between atoms: _130  and  _132
REMARK   47  A    between atoms: _143  and  _146
REMARK   48  A    between atoms: _146  and  _147
REMARK   49  A    between atoms: _155  and  _156
REMARK   50  A    between atoms: _164  and  _166
REMARK   51  A    between atoms: _166  and  _167
REMARK   52  A    between atoms: _166  and  _169
REMARK   53  A    between atoms: _169  and  _170
REMARK   54  A    between atoms: _170  and  _171
REMARK   55  A    between atoms: _174  and  _176
REMARK   56  A    between atoms: _176  and  _177
REMARK   57  A    between atoms: _176  and  _179
REMARK   58  A    between atoms: _179  and  _180
REMARK   59  A    between atoms: _185  and  _187
REMARK   60  A    between atoms: _187  and  _188
REMARK   61  A    between atoms: _187  and  _190
REMARK   62  A    between atoms: _190  and  _191
REMARK   63  A    between atoms: _191  and  _192
REMARK   64  A    between atoms: _195  and  _197
REMARK   65  A    between atoms: _197  and  _198
REMARK   66  A    between atoms: _197  and  _200
REMARK   67  A    between atoms: _200  and  _201
REMARK   68  A    between atoms: _204  and  _206
REMARK   69  A    between atoms: _206  and  _207
REMARK   70  A    between atoms: _206  and  _209
REMARK   71  A    between atoms: _209  and  _210
REMARK   72  A    between atoms: _211  and  ZN_436
REMARK   73  A    between atoms: _215  and  _217
REMARK   74  A    between atoms: _217  and  _218
REMARK   75  A    between atoms: _217  and  _220
REMARK   76  A    between atoms: _220  and  _221
REMARK   77  A    between atoms: _224  and  _226
REMARK   78  A    between atoms: _226  and  _227
REMARK   79  A    between atoms: _226  and  _229
REMARK   80  A    between atoms: _232  and  _234
REMARK   81  A    between atoms: _234  and  _235
REMARK   82  A    between atoms: _234  and  _237
REMARK   83  A    between atoms: _237  and  _238
REMARK   84  A    between atoms: _243  and  _245
REMARK   85  A    between atoms: _245  and  _246
REMARK   86  A    between atoms: _245  and  _248
REMARK   87  A    between atoms: _248  and  _249
REMARK   88  A    between atoms: _255  and  _257
REMARK   89  A    between atoms: _257  and  _258
REMARK   90  A    between atoms: _260  and  _262
REMARK   91  A    between atoms: _262  and  _263
REMARK   92  A    between atoms: _262  and  _265
REMARK   93  A    between atoms: _268  and  _270
REMARK   94  A    between atoms: _270  and  _271
REMARK   95  A    between atoms: _270  and  _273
REMARK   96  A    between atoms: _273  and  _274
REMARK   97  A    between atoms: _277  and  _279
REMARK   98  A    between atoms: _279  and  _280
REMARK   99  A    between atoms: _283  and  _285
REMARK  100  A    between atoms: _285  and  _286
REMARK  101  A    between atoms: _285  and  _288
REMARK  102  A    between atoms: _291  and  _293
REMARK  103  A    between atoms: _293  and  _294
REMARK  104  A    between atoms: _293  and  _296
REMARK  105  A    between atoms: _296  and  _297
REMARK  106  A    between atoms: _300  and  _302
REMARK  107  A    between atoms: _302  and  _303
REMARK  108  A    between atoms: _305  and  _307
REMARK  109  A    between atoms: _307  and  _308
REMARK  110  A    between atoms: _310  and  _312
REMARK  111  A    between atoms: _312  and  _313
REMARK  112  A    between atoms: _312  and  _315
REMARK  113  A    between atoms: _315  and  _316
REMARK  114  A    between atoms: _318  and  _320
REMARK  115  A    between atoms: _320  and  _321
REMARK  116  A    between atoms: _320  and  _323
REMARK  117  A    between atoms: _323  and  _324
REMARK  118  A    between atoms: _327  and  _329
REMARK  119  A    between atoms: _329  and  _330
REMARK  120  A    between atoms: _329  and  _332
REMARK  121  A    between atoms: _332  and  _333
REMARK  122  A    between atoms: _336  and  _338
REMARK  123  A    between atoms: _338  and  _339
REMARK  124  A    between atoms: _338  and  _341
REMARK  125  A    between atoms: _341  and  _342
REMARK  126  A    between atoms: _346  and  _347
REMARK  127  A    between atoms: _353  and  _354
REMARK  128  A    between atoms: _359  and  _361
REMARK  129  A    between atoms: _361  and  _362
REMARK  130  A    between atoms: _361  and  _364
REMARK  131  A    between atoms: _364  and  _365
REMARK  132  A    between atoms: _368  and  _370
REMARK  133  A    between atoms: _370  and  _371
REMARK  134  A    between atoms: _370  and  _373
REMARK  135  A    between atoms: _373  and  _374
REMARK  136  A    between atoms: _377  and  _379
REMARK  137  A    between atoms: _379  and  _380
REMARK  138  A    between atoms: _379  and  _382
REMARK  139  A    between atoms: _384  and  _386
REMARK  140  A    between atoms: _386  and  _387
REMARK  141  A    between atoms: _386  and  _389
REMARK  142  A    between atoms: _392  and  _394
REMARK  143  A    between atoms: _394  and  _395
REMARK  144  A    between atoms: _394  and  _397
REMARK  145  A    between atoms: _397  and  _398
REMARK  146  A    between atoms: _408  and  _410
REMARK  147  A    between atoms: _410  and  _411
REMARK  148  A    between atoms: _410  and  _413
REMARK  149  A    between atoms: _413  and  _414
REMARK  150  A    between atoms: _419  and  _421
REMARK  151  A    between atoms: _421  and  _422
REMARK  152  A    between atoms: _421  and  _424
REMARK  153  A    between atoms: _424  and  _425
REMARK  154  A    between atoms: _425  and  _426
REMARK  155  A    between atoms: _426  and  _427
REMARK                            x       y       z     vdW  Elec       q    Type
REMARK                         _______ _______ _______ _____ _____    ______ ____
ROOT
ATOM      1  O   HOH     1      27.292   9.590  18.032  0.00  0.00    +0.000 OA
ENDROOT
TORSDOF 0
