REMARK  Name = ../refined-set-2016/4lar/4lar_pocket.pdb
REMARK  144 active torsions:
REMARK  status: ('A' for Active; 'I' for Inactive)
REMARK    1  A    between atoms: _1  and  _3
REMARK    2  A    between atoms: _3  and  _4
REMARK    3  A    between atoms: _6  and  _8
REMARK    4  A    between atoms: _8  and  _9
REMARK    5  A    between atoms: _8  and  _11
REMARK    6  A    between atoms: _11  and  _12
REMARK    7  A    between atoms: _17  and  _18
REMARK    8  A    between atoms: _20  and  _22
REMARK    9  A    between atoms: _22  and  _23
REMARK   10  A    between atoms: _22  and  _25
REMARK   11  A    between atoms: _25  and  _26
REMARK   12  A    between atoms: _36  and  _38
REMARK   13  A    between atoms: _38  and  _39
REMARK   14  A    between atoms: _38  and  _41
REMARK   15  A    between atoms: _41  and  _42
REMARK   16  A    between atoms: _44  and  _46
REMARK   17  A    between atoms: _46  and  _47
REMARK   18  A    between atoms: _46  and  _49
REMARK   19  A    between atoms: _49  and  _50
REMARK   20  A    between atoms: _60  and  _62
REMARK   21  A    between atoms: _62  and  _63
REMARK   22  A    between atoms: _62  and  _65
REMARK   23  A    between atoms: _65  and  _66
REMARK   24  A    between atoms: _69  and  _71
REMARK   25  A    between atoms: _71  and  _72
REMARK   26  A    between atoms: _71  and  _74
REMARK   27  A    between atoms: _74  and  _75
REMARK   28  A    between atoms: _80  and  _81
REMARK   29  A    between atoms: _83  and  _85
REMARK   30  A    between atoms: _85  and  _86
REMARK   31  A    between atoms: _88  and  _90
REMARK   32  A    between atoms: _90  and  _91
REMARK   33  A    between atoms: _90  and  _93
REMARK   34  A    between atoms: _93  and  _94
REMARK   35  A    between atoms: _99  and  _100
REMARK   36  A    between atoms: _102  and  _104
REMARK   37  A    between atoms: _104  and  _105
REMARK   38  A    between atoms: _104  and  _107
REMARK   39  A    between atoms: _107  and  _108
REMARK   40  A    between atoms: _111  and  _113
REMARK   41  A    between atoms: _113  and  _114
REMARK   42  A    between atoms: _113  and  _116
REMARK   43  A    between atoms: _116  and  _117
REMARK   44  A    between atoms: _119  and  _121
REMARK   45  A    between atoms: _121  and  _122
REMARK   46  A    between atoms: _121  and  _124
REMARK   47  A    between atoms: _124  and  _125
REMARK   48  A    between atoms: _130  and  _131
REMARK   49  A    between atoms: _133  and  _135
REMARK   50  A    between atoms: _135  and  _136
REMARK   51  A    between atoms: _135  and  _138
REMARK   52  A    between atoms: _138  and  _139
REMARK   53  A    between atoms: _141  and  _143
REMARK   54  A    between atoms: _143  and  _144
REMARK   55  A    between atoms: _143  and  _146
REMARK   56  A    between atoms: _146  and  _147
REMARK   57  A    between atoms: _152  and  _153
REMARK   58  A    between atoms: _155  and  _157
REMARK   59  A    between atoms: _157  and  _158
REMARK   60  A    between atoms: _157  and  _160
REMARK   61  A    between atoms: _160  and  _161
REMARK   62  A    between atoms: _167  and  _169
REMARK   63  A    between atoms: _169  and  _170
REMARK   64  A    between atoms: _169  and  _172
REMARK   65  A    between atoms: _172  and  _173
REMARK   66  A    between atoms: _176  and  _178
REMARK   67  A    between atoms: _178  and  _179
REMARK   68  A    between atoms: _178  and  _181
REMARK   69  A    between atoms: _181  and  _182
REMARK   70  A    between atoms: _184  and  _186
REMARK   71  A    between atoms: _186  and  _187
REMARK   72  A    between atoms: _186  and  _189
REMARK   73  A    between atoms: _189  and  _190
REMARK   74  A    between atoms: _195  and  _196
REMARK   75  A    between atoms: _198  and  _200
REMARK   76  A    between atoms: _200  and  _201
REMARK   77  A    between atoms: _200  and  _203
REMARK   78  A    between atoms: _203  and  _204
REMARK   79  A    between atoms: _204  and  _205
REMARK   80  A    between atoms: _207  and  _209
REMARK   81  A    between atoms: _209  and  _210
REMARK   82  A    between atoms: _209  and  _212
REMARK   83  A    between atoms: _212  and  _213
REMARK   84  A    between atoms: _213  and  _214
REMARK   85  A    between atoms: _217  and  _219
REMARK   86  A    between atoms: _219  and  _220
REMARK   87  A    between atoms: _219  and  _222
REMARK   88  A    between atoms: _222  and  _223
REMARK   89  A    between atoms: _228  and  _229
REMARK   90  A    between atoms: _231  and  _233
REMARK   91  A    between atoms: _233  and  _234
REMARK   92  A    between atoms: _233  and  _236
REMARK   93  A    between atoms: _236  and  _237
REMARK   94  A    between atoms: _247  and  _249
REMARK   95  A    between atoms: _249  and  _250
REMARK   96  A    between atoms: _249  and  _252
REMARK   97  A    between atoms: _252  and  _253
REMARK   98  A    between atoms: _258  and  _260
REMARK   99  A    between atoms: _260  and  _261
REMARK  100  A    between atoms: _260  and  _263
REMARK  101  A    between atoms: _263  and  _264
REMARK  102  A    between atoms: _269  and  _270
REMARK  103  A    between atoms: _272  and  _274
REMARK  104  A    between atoms: _274  and  _275
REMARK  105  A    between atoms: _274  and  _277
REMARK  106  A    between atoms: _277  and  _278
REMARK  107  A    between atoms: _283  and  _284
REMARK  108  A    between atoms: _286  and  _288
REMARK  109  A    between atoms: _288  and  _289
REMARK  110  A    between atoms: _288  and  _291
REMARK  111  A    between atoms: _291  and  _292
REMARK  112  A    between atoms: _295  and  _297
REMARK  113  A    between atoms: _297  and  _298
REMARK  114  A    between atoms: _297  and  _300
REMARK  115  A    between atoms: _300  and  _301
REMARK  116  A    between atoms: _306  and  _308
REMARK  117  A    between atoms: _308  and  _309
REMARK  118  A    between atoms: _308  and  _311
REMARK  119  A    between atoms: _311  and  _312
REMARK  120  A    between atoms: _312  and  _313
REMARK  121  A    between atoms: _318  and  _320
REMARK  122  A    between atoms: _320  and  _321
REMARK  123  A    between atoms: _320  and  _323
REMARK  124  A    between atoms: _323  and  _324
REMARK  125  A    between atoms: _334  and  _336
REMARK  126  A    between atoms: _336  and  _337
REMARK  127  A    between atoms: _336  and  _339
REMARK  128  A    between atoms: _339  and  _340
REMARK  129  A    between atoms: _342  and  _344
REMARK  130  A    between atoms: _344  and  _345
REMARK  131  A    between atoms: _344  and  _347
REMARK  132  A    between atoms: _347  and  _348
REMARK  133  A    between atoms: _354  and  _356
REMARK  134  A    between atoms: _356  and  _357
REMARK  135  A    between atoms: _356  and  _359
REMARK  136  A    between atoms: _359  and  _360
REMARK  137  A    between atoms: _366  and  _368
REMARK  138  A    between atoms: _368  and  _369
REMARK  139  A    between atoms: _368  and  _371
REMARK  140  A    between atoms: _371  and  _372
REMARK  141  A    between atoms: _375  and  _377
REMARK  142  A    between atoms: _377  and  _378
REMARK  143  A    between atoms: _377  and  _380
REMARK  144  A    between atoms: _380  and  _381
REMARK                            x       y       z     vdW  Elec       q    Type
REMARK                         _______ _______ _______ _____ _____    ______ ____
ROOT
ATOM      1  C   TRP A   3       0.606  -8.998  21.504  0.00  0.00    +0.241 C 
ATOM      2  O   TRP A   3       0.375 -10.179  21.196  0.00  0.00    -0.273 OA
ATOM      3  N   SER A   4       1.158  -8.128  20.659  0.00  0.00    -0.295 N 
ATOM      4  H   SER A   4       1.369  -7.159  20.972  0.00  0.00    +0.150 HD
ENDROOT
BRANCH   3   5
ATOM      5  CA  SER A   4       1.465  -8.540  19.292  0.00  0.00    +0.178 C 
BRANCH   5   6
ATOM      6  C   SER A   4       2.965  -8.570  19.055  0.00  0.00    +0.243 C 
ATOM      7  O   SER A   4       3.698  -7.792  19.635  0.00  0.00    -0.273 OA
ATOM      8  N   TRP A   5       3.439  -9.504  18.239  0.00  0.00    -0.297 N 
ATOM      9  H   TRP A   5       2.842 -10.311  17.967  0.00  0.00    +0.150 HD
BRANCH   8  10
ATOM     10  CA  TRP A   5       4.796  -9.394  17.726  0.00  0.00    +0.153 C 
BRANCH  10  11
ATOM     11  C   TRP A   5       4.791  -8.902  16.294  0.00  0.00    +0.241 C 
ATOM     12  N   ILE A   6       5.711  -7.988  16.009  0.00  0.00    -0.298 N 
ATOM     13  H   ILE A   6       6.380  -7.722  16.759  0.00  0.00    +0.150 HD
ATOM     14  O   TRP A   5       3.979  -9.333  15.483  0.00  0.00    -0.273 OA
BRANCH  12  15
ATOM     15  CA  ILE A   6       5.842  -7.344  14.735  0.00  0.00    +0.137 C 
BRANCH  15  16
ATOM     16  CB  ILE A   6       5.249  -5.919  14.809  0.00  0.00    +0.026 C 
ATOM     17  CG2 ILE A   6       5.397  -5.123  13.464  0.00  0.00    +0.002 C 
BRANCH  16  18
ATOM     18  CG1 ILE A   6       3.785  -5.940  15.287  0.00  0.00    +0.002 C 
ATOM     19  CD1 ILE A   6       3.456  -4.689  16.140  0.00  0.00    +0.000 C 
ENDBRANCH  16  18
ENDBRANCH  15  16
BRANCH  15  20
ATOM     20  C   ILE A   6       7.343  -7.313  14.494  0.00  0.00    +0.227 C 
ATOM     21  O   ILE A   6       8.129  -7.137  15.455  0.00  0.00    -0.286 OA
ENDBRANCH  15  20
ENDBRANCH  12  15
ENDBRANCH  10  11
BRANCH  10  22
ATOM     22  CB  TRP A   5       5.486 -10.722  17.796  0.00  0.00    +0.057 C 
BRANCH  22  23
ATOM     23  CG  TRP A   5       5.775 -11.185  19.144  0.00  0.00    -0.002 A 
ATOM     24  CD1 TRP A   5       5.016 -12.008  19.898  0.00  0.00    +0.068 A 
ATOM     25  NE1 TRP A   5       5.634 -12.250  21.097  0.00  0.00    -0.352 N 
ATOM     26  HE1 TRP A   5       5.249 -12.829  21.870  0.00  0.00    +0.166 HD
ATOM     27  CE2 TRP A   5       6.845 -11.603  21.110  0.00  0.00    +0.056 A 
ATOM     28  CZ2 TRP A   5       7.832 -11.551  22.091  0.00  0.00    +0.017 A 
ATOM     29  CH2 TRP A   5       8.943 -10.805  21.832  0.00  0.00    +0.001 A 
ATOM     30  CZ3 TRP A   5       9.090 -10.111  20.630  0.00  0.00    +0.000 A 
ATOM     31  CE3 TRP A   5       8.119 -10.163  19.660  0.00  0.00    +0.001 A 
ATOM     32  CD2 TRP A   5       6.966 -10.921  19.897  0.00  0.00    +0.013 A 
ENDBRANCH  22  23
ENDBRANCH  10  22
ENDBRANCH   8  10
ENDBRANCH   5   6
BRANCH   5  33
ATOM     33  CB  SER A   4       0.722  -7.684  18.256  0.00  0.00    +0.166 C 
BRANCH  33  34
ATOM     34  OG  SER A   4      -0.710  -7.785  18.415  0.00  0.00    -0.380 OA
ATOM     35  H   SER A   4      -0.963  -7.473  19.320  0.00  0.00    +0.211 HD
ENDBRANCH  33  34
ENDBRANCH   5  33
ENDBRANCH   3   5
BRANCH   1  36
ATOM     36  CA  TRP A   3       0.210  -8.457  22.855  0.00  0.00    +0.153 C 
BRANCH  36  38
ATOM     37  C   TYR A   2      -2.095  -7.712  22.815  0.00  0.00    +0.241 C 
ATOM     38  N   TRP A   3      -1.215  -8.687  22.991  0.00  0.00    -0.297 N 
ATOM     39  H   TRP A   3      -1.555  -9.640  23.232  0.00  0.00    +0.150 HD
ATOM     40  O   TYR A   2      -1.782  -6.543  22.563  0.00  0.00    -0.273 OA
BRANCH  37  41
ATOM     41  CA  TYR A   2      -3.536  -8.110  22.838  0.00  0.00    +0.153 C 
BRANCH  41  44
ATOM     42  C   GLY A   1      -5.234  -7.562  24.607  0.00  0.00    +0.240 C 
ATOM     43  O   GLY A   1      -5.433  -8.745  24.923  0.00  0.00    -0.274 OA
ATOM     44  N   TYR A   2      -4.328  -7.179  23.679  0.00  0.00    -0.297 N 
ATOM     45  H   TYR A   2      -4.175  -6.159  23.545  0.00  0.00    +0.150 HD
BRANCH  42  46
ATOM     46  CA  GLY A   1      -6.034  -6.439  25.262  0.00  0.00    +0.169 C 
BRANCH  46  47
ATOM     47  N   GLY A   1      -7.057  -6.823  26.254  0.00  0.00    -0.236 NA
ATOM     48  H   GLY A   1      -7.862  -7.406  25.949  0.00  0.00    +0.142 HD
ENDBRANCH  46  47
ENDBRANCH  42  46
ENDBRANCH  41  44
BRANCH  41  49
ATOM     49  CB  TYR A   2      -3.979  -8.091  21.359  0.00  0.00    +0.055 C 
BRANCH  49  50
ATOM     50  CG  TYR A   2      -5.449  -8.311  21.137  0.00  0.00    -0.020 A 
ATOM     51  CD2 TYR A   2      -6.374  -7.334  21.497  0.00  0.00    -0.001 A 
ATOM     52  CE2 TYR A   2      -7.714  -7.520  21.310  0.00  0.00    +0.036 A 
ATOM     53  CZ  TYR A   2      -8.169  -8.699  20.748  0.00  0.00    +0.134 A 
ATOM     54  CE1 TYR A   2      -7.274  -9.693  20.385  0.00  0.00    +0.036 A 
ATOM     55  CD1 TYR A   2      -5.912  -9.488  20.591  0.00  0.00    -0.001 A 
BRANCH  53  56
ATOM     56  OH  TYR A   2      -9.521  -8.874  20.548  0.00  0.00    -0.506 OA
ATOM     57  HH  TYR A   2     -10.007  -8.071  20.863  0.00  0.00    +0.292 HD
ENDBRANCH  53  56
ENDBRANCH  49  50
ENDBRANCH  41  49
ENDBRANCH  37  41
ENDBRANCH  36  38
BRANCH  36  58
ATOM     58  CB  TRP A   3       0.971  -9.135  24.003  0.00  0.00    +0.057 C 
BRANCH  58  59
ATOM     59  CG  TRP A   3       0.753  -8.454  25.333  0.00  0.00    -0.002 A 
ATOM     60  CD2 TRP A   3      -0.405  -8.550  26.170  0.00  0.00    +0.013 A 
ATOM     61  CE2 TRP A   3      -0.175  -7.730  27.302  0.00  0.00    +0.056 A 
ATOM     62  CZ2 TRP A   3      -1.108  -7.600  28.334  0.00  0.00    +0.017 A 
ATOM     63  CH2 TRP A   3      -2.294  -8.305  28.221  0.00  0.00    +0.001 A 
ATOM     64  CZ3 TRP A   3      -2.558  -9.126  27.109  0.00  0.00    +0.000 A 
ATOM     65  NE1 TRP A   3       1.057  -7.147  27.155  0.00  0.00    -0.352 N 
ATOM     66  HE1 TRP A   3       1.497  -6.484  27.825  0.00  0.00    +0.166 HD
ATOM     67  CE3 TRP A   3      -1.617  -9.258  26.079  0.00  0.00    +0.001 A 
ATOM     68  CD1 TRP A   3       1.618  -7.582  25.974  0.00  0.00    +0.068 A 
ENDBRANCH  58  59
ENDBRANCH  36  58
ENDBRANCH   1  36
TORSDOF 23
REMARK  Name = ../refined-set-2016/4lar/4lar_pocket.pdb
REMARK  144 active torsions:
REMARK  status: ('A' for Active; 'I' for Inactive)
REMARK    1  A    between atoms: _1  and  _3
REMARK    2  A    between atoms: _3  and  _4
REMARK    3  A    between atoms: _6  and  _8
REMARK    4  A    between atoms: _8  and  _9
REMARK    5  A    between atoms: _8  and  _11
REMARK    6  A    between atoms: _11  and  _12
REMARK    7  A    between atoms: _17  and  _18
REMARK    8  A    between atoms: _20  and  _22
REMARK    9  A    between atoms: _22  and  _23
REMARK   10  A    between atoms: _22  and  _25
REMARK   11  A    between atoms: _25  and  _26
REMARK   12  A    between atoms: _36  and  _38
REMARK   13  A    between atoms: _38  and  _39
REMARK   14  A    between atoms: _38  and  _41
REMARK   15  A    between atoms: _41  and  _42
REMARK   16  A    between atoms: _44  and  _46
REMARK   17  A    between atoms: _46  and  _47
REMARK   18  A    between atoms: _46  and  _49
REMARK   19  A    between atoms: _49  and  _50
REMARK   20  A    between atoms: _60  and  _62
REMARK   21  A    between atoms: _62  and  _63
REMARK   22  A    between atoms: _62  and  _65
REMARK   23  A    between atoms: _65  and  _66
REMARK   24  A    between atoms: _69  and  _71
REMARK   25  A    between atoms: _71  and  _72
REMARK   26  A    between atoms: _71  and  _74
REMARK   27  A    between atoms: _74  and  _75
REMARK   28  A    between atoms: _80  and  _81
REMARK   29  A    between atoms: _83  and  _85
REMARK   30  A    between atoms: _85  and  _86
REMARK   31  A    between atoms: _88  and  _90
REMARK   32  A    between atoms: _90  and  _91
REMARK   33  A    between atoms: _90  and  _93
REMARK   34  A    between atoms: _93  and  _94
REMARK   35  A    between atoms: _99  and  _100
REMARK   36  A    between atoms: _102  and  _104
REMARK   37  A    between atoms: _104  and  _105
REMARK   38  A    between atoms: _104  and  _107
REMARK   39  A    between atoms: _107  and  _108
REMARK   40  A    between atoms: _111  and  _113
REMARK   41  A    between atoms: _113  and  _114
REMARK   42  A    between atoms: _113  and  _116
REMARK   43  A    between atoms: _116  and  _117
REMARK   44  A    between atoms: _119  and  _121
REMARK   45  A    between atoms: _121  and  _122
REMARK   46  A    between atoms: _121  and  _124
REMARK   47  A    between atoms: _124  and  _125
REMARK   48  A    between atoms: _130  and  _131
REMARK   49  A    between atoms: _133  and  _135
REMARK   50  A    between atoms: _135  and  _136
REMARK   51  A    between atoms: _135  and  _138
REMARK   52  A    between atoms: _138  and  _139
REMARK   53  A    between atoms: _141  and  _143
REMARK   54  A    between atoms: _143  and  _144
REMARK   55  A    between atoms: _143  and  _146
REMARK   56  A    between atoms: _146  and  _147
REMARK   57  A    between atoms: _152  and  _153
REMARK   58  A    between atoms: _155  and  _157
REMARK   59  A    between atoms: _157  and  _158
REMARK   60  A    between atoms: _157  and  _160
REMARK   61  A    between atoms: _160  and  _161
REMARK   62  A    between atoms: _167  and  _169
REMARK   63  A    between atoms: _169  and  _170
REMARK   64  A    between atoms: _169  and  _172
REMARK   65  A    between atoms: _172  and  _173
REMARK   66  A    between atoms: _176  and  _178
REMARK   67  A    between atoms: _178  and  _179
REMARK   68  A    between atoms: _178  and  _181
REMARK   69  A    between atoms: _181  and  _182
REMARK   70  A    between atoms: _184  and  _186
REMARK   71  A    between atoms: _186  and  _187
REMARK   72  A    between atoms: _186  and  _189
REMARK   73  A    between atoms: _189  and  _190
REMARK   74  A    between atoms: _195  and  _196
REMARK   75  A    between atoms: _198  and  _200
REMARK   76  A    between atoms: _200  and  _201
REMARK   77  A    between atoms: _200  and  _203
REMARK   78  A    between atoms: _203  and  _204
REMARK   79  A    between atoms: _204  and  _205
REMARK   80  A    between atoms: _207  and  _209
REMARK   81  A    between atoms: _209  and  _210
REMARK   82  A    between atoms: _209  and  _212
REMARK   83  A    between atoms: _212  and  _213
REMARK   84  A    between atoms: _213  and  _214
REMARK   85  A    between atoms: _217  and  _219
REMARK   86  A    between atoms: _219  and  _220
REMARK   87  A    between atoms: _219  and  _222
REMARK   88  A    between atoms: _222  and  _223
REMARK   89  A    between atoms: _228  and  _229
REMARK   90  A    between atoms: _231  and  _233
REMARK   91  A    between atoms: _233  and  _234
REMARK   92  A    between atoms: _233  and  _236
REMARK   93  A    between atoms: _236  and  _237
REMARK   94  A    between atoms: _247  and  _249
REMARK   95  A    between atoms: _249  and  _250
REMARK   96  A    between atoms: _249  and  _252
REMARK   97  A    between atoms: _252  and  _253
REMARK   98  A    between atoms: _258  and  _260
REMARK   99  A    between atoms: _260  and  _261
REMARK  100  A    between atoms: _260  and  _263
REMARK  101  A    between atoms: _263  and  _264
REMARK  102  A    between atoms: _269  and  _270
REMARK  103  A    between atoms: _272  and  _274
REMARK  104  A    between atoms: _274  and  _275
REMARK  105  A    between atoms: _274  and  _277
REMARK  106  A    between atoms: _277  and  _278
REMARK  107  A    between atoms: _283  and  _284
REMARK  108  A    between atoms: _286  and  _288
REMARK  109  A    between atoms: _288  and  _289
REMARK  110  A    between atoms: _288  and  _291
REMARK  111  A    between atoms: _291  and  _292
REMARK  112  A    between atoms: _295  and  _297
REMARK  113  A    between atoms: _297  and  _298
REMARK  114  A    between atoms: _297  and  _300
REMARK  115  A    between atoms: _300  and  _301
REMARK  116  A    between atoms: _306  and  _308
REMARK  117  A    between atoms: _308  and  _309
REMARK  118  A    between atoms: _308  and  _311
REMARK  119  A    between atoms: _311  and  _312
REMARK  120  A    between atoms: _312  and  _313
REMARK  121  A    between atoms: _318  and  _320
REMARK  122  A    between atoms: _320  and  _321
REMARK  123  A    between atoms: _320  and  _323
REMARK  124  A    between atoms: _323  and  _324
REMARK  125  A    between atoms: _334  and  _336
REMARK  126  A    between atoms: _336  and  _337
REMARK  127  A    between atoms: _336  and  _339
REMARK  128  A    between atoms: _339  and  _340
REMARK  129  A    between atoms: _342  and  _344
REMARK  130  A    between atoms: _344  and  _345
REMARK  131  A    between atoms: _344  and  _347
REMARK  132  A    between atoms: _347  and  _348
REMARK  133  A    between atoms: _354  and  _356
REMARK  134  A    between atoms: _356  and  _357
REMARK  135  A    between atoms: _356  and  _359
REMARK  136  A    between atoms: _359  and  _360
REMARK  137  A    between atoms: _366  and  _368
REMARK  138  A    between atoms: _368  and  _369
REMARK  139  A    between atoms: _368  and  _371
REMARK  140  A    between atoms: _371  and  _372
REMARK  141  A    between atoms: _375  and  _377
REMARK  142  A    between atoms: _377  and  _378
REMARK  143  A    between atoms: _377  and  _380
REMARK  144  A    between atoms: _380  and  _381
REMARK                            x       y       z     vdW  Elec       q    Type
REMARK                         _______ _______ _______ _____ _____    ______ ____
ROOT
ATOM      1  CG  TYR A   1       0.453  -8.125  12.551  0.00  0.00    -0.020 A 
ATOM      2  CD2 TYR A   1       0.496  -7.156  13.596  0.00  0.00    -0.001 A 
ATOM      3  CE2 TYR A   1      -0.187  -7.355  14.786  0.00  0.00    +0.036 A 
ATOM      4  CZ  TYR A   1      -0.944  -8.540  14.992  0.00  0.00    +0.134 A 
ATOM      5  CE1 TYR A   1      -0.998  -9.525  14.014  0.00  0.00    +0.036 A 
ATOM      6  CD1 TYR A   1      -0.276  -9.314  12.792  0.00  0.00    -0.001 A 
ENDROOT
BRANCH   4   7
ATOM      7  OH  TYR A   1      -1.629  -8.755  16.178  0.00  0.00    -0.506 OA
ATOM      8  HH  TYR A   1      -1.503  -7.977  16.777  0.00  0.00    +0.292 HD
ENDBRANCH   4   7
BRANCH   1   9
ATOM      9  CB  TYR A   1       1.249  -7.933  11.236  0.00  0.00    +0.051 C 
BRANCH   9  10
ATOM     10  CA  TYR A   1       2.676  -8.451  11.405  0.00  0.00    +0.137 C 
BRANCH  10  11
ATOM     11  N   TYR A   1       3.533  -8.045  10.327  0.00  0.00    -0.239 NA
ATOM     12  H   TYR A   1       3.104  -7.751   9.426  0.00  0.00    +0.142 HD
ENDBRANCH  10  11
BRANCH  10  13
ATOM     13  C   TYR A   1       2.666  -9.970  11.552  0.00  0.00    +0.224 C 
ATOM     14  O   TYR A   1       2.126 -10.656  10.685  0.00  0.00    -0.287 OA
ENDBRANCH  10  13
ENDBRANCH   9  10
ENDBRANCH   1   9
TORSDOF 5
REMARK  Name = ../refined-set-2016/4lar/4lar_pocket.pdb
REMARK  144 active torsions:
REMARK  status: ('A' for Active; 'I' for Inactive)
REMARK    1  A    between atoms: _1  and  _3
REMARK    2  A    between atoms: _3  and  _4
REMARK    3  A    between atoms: _6  and  _8
REMARK    4  A    between atoms: _8  and  _9
REMARK    5  A    between atoms: _8  and  _11
REMARK    6  A    between atoms: _11  and  _12
REMARK    7  A    between atoms: _17  and  _18
REMARK    8  A    between atoms: _20  and  _22
REMARK    9  A    between atoms: _22  and  _23
REMARK   10  A    between atoms: _22  and  _25
REMARK   11  A    between atoms: _25  and  _26
REMARK   12  A    between atoms: _36  and  _38
REMARK   13  A    between atoms: _38  and  _39
REMARK   14  A    between atoms: _38  and  _41
REMARK   15  A    between atoms: _41  and  _42
REMARK   16  A    between atoms: _44  and  _46
REMARK   17  A    between atoms: _46  and  _47
REMARK   18  A    between atoms: _46  and  _49
REMARK   19  A    between atoms: _49  and  _50
REMARK   20  A    between atoms: _60  and  _62
REMARK   21  A    between atoms: _62  and  _63
REMARK   22  A    between atoms: _62  and  _65
REMARK   23  A    between atoms: _65  and  _66
REMARK   24  A    between atoms: _69  and  _71
REMARK   25  A    between atoms: _71  and  _72
REMARK   26  A    between atoms: _71  and  _74
REMARK   27  A    between atoms: _74  and  _75
REMARK   28  A    between atoms: _80  and  _81
REMARK   29  A    between atoms: _83  and  _85
REMARK   30  A    between atoms: _85  and  _86
REMARK   31  A    between atoms: _88  and  _90
REMARK   32  A    between atoms: _90  and  _91
REMARK   33  A    between atoms: _90  and  _93
REMARK   34  A    between atoms: _93  and  _94
REMARK   35  A    between atoms: _99  and  _100
REMARK   36  A    between atoms: _102  and  _104
REMARK   37  A    between atoms: _104  and  _105
REMARK   38  A    between atoms: _104  and  _107
REMARK   39  A    between atoms: _107  and  _108
REMARK   40  A    between atoms: _111  and  _113
REMARK   41  A    between atoms: _113  and  _114
REMARK   42  A    between atoms: _113  and  _116
REMARK   43  A    between atoms: _116  and  _117
REMARK   44  A    between atoms: _119  and  _121
REMARK   45  A    between atoms: _121  and  _122
REMARK   46  A    between atoms: _121  and  _124
REMARK   47  A    between atoms: _124  and  _125
REMARK   48  A    between atoms: _130  and  _131
REMARK   49  A    between atoms: _133  and  _135
REMARK   50  A    between atoms: _135  and  _136
REMARK   51  A    between atoms: _135  and  _138
REMARK   52  A    between atoms: _138  and  _139
REMARK   53  A    between atoms: _141  and  _143
REMARK   54  A    between atoms: _143  and  _144
REMARK   55  A    between atoms: _143  and  _146
REMARK   56  A    between atoms: _146  and  _147
REMARK   57  A    between atoms: _152  and  _153
REMARK   58  A    between atoms: _155  and  _157
REMARK   59  A    between atoms: _157  and  _158
REMARK   60  A    between atoms: _157  and  _160
REMARK   61  A    between atoms: _160  and  _161
REMARK   62  A    between atoms: _167  and  _169
REMARK   63  A    between atoms: _169  and  _170
REMARK   64  A    between atoms: _169  and  _172
REMARK   65  A    between atoms: _172  and  _173
REMARK   66  A    between atoms: _176  and  _178
REMARK   67  A    between atoms: _178  and  _179
REMARK   68  A    between atoms: _178  and  _181
REMARK   69  A    between atoms: _181  and  _182
REMARK   70  A    between atoms: _184  and  _186
REMARK   71  A    between atoms: _186  and  _187
REMARK   72  A    between atoms: _186  and  _189
REMARK   73  A    between atoms: _189  and  _190
REMARK   74  A    between atoms: _195  and  _196
REMARK   75  A    between atoms: _198  and  _200
REMARK   76  A    between atoms: _200  and  _201
REMARK   77  A    between atoms: _200  and  _203
REMARK   78  A    between atoms: _203  and  _204
REMARK   79  A    between atoms: _204  and  _205
REMARK   80  A    between atoms: _207  and  _209
REMARK   81  A    between atoms: _209  and  _210
REMARK   82  A    between atoms: _209  and  _212
REMARK   83  A    between atoms: _212  and  _213
REMARK   84  A    between atoms: _213  and  _214
REMARK   85  A    between atoms: _217  and  _219
REMARK   86  A    between atoms: _219  and  _220
REMARK   87  A    between atoms: _219  and  _222
REMARK   88  A    between atoms: _222  and  _223
REMARK   89  A    between atoms: _228  and  _229
REMARK   90  A    between atoms: _231  and  _233
REMARK   91  A    between atoms: _233  and  _234
REMARK   92  A    between atoms: _233  and  _236
REMARK   93  A    between atoms: _236  and  _237
REMARK   94  A    between atoms: _247  and  _249
REMARK   95  A    between atoms: _249  and  _250
REMARK   96  A    between atoms: _249  and  _252
REMARK   97  A    between atoms: _252  and  _253
REMARK   98  A    between atoms: _258  and  _260
REMARK   99  A    between atoms: _260  and  _261
REMARK  100  A    between atoms: _260  and  _263
REMARK  101  A    between atoms: _263  and  _264
REMARK  102  A    between atoms: _269  and  _270
REMARK  103  A    between atoms: _272  and  _274
REMARK  104  A    between atoms: _274  and  _275
REMARK  105  A    between atoms: _274  and  _277
REMARK  106  A    between atoms: _277  and  _278
REMARK  107  A    between atoms: _283  and  _284
REMARK  108  A    between atoms: _286  and  _288
REMARK  109  A    between atoms: _288  and  _289
REMARK  110  A    between atoms: _288  and  _291
REMARK  111  A    between atoms: _291  and  _292
REMARK  112  A    between atoms: _295  and  _297
REMARK  113  A    between atoms: _297  and  _298
REMARK  114  A    between atoms: _297  and  _300
REMARK  115  A    between atoms: _300  and  _301
REMARK  116  A    between atoms: _306  and  _308
REMARK  117  A    between atoms: _308  and  _309
REMARK  118  A    between atoms: _308  and  _311
REMARK  119  A    between atoms: _311  and  _312
REMARK  120  A    between atoms: _312  and  _313
REMARK  121  A    between atoms: _318  and  _320
REMARK  122  A    between atoms: _320  and  _321
REMARK  123  A    between atoms: _320  and  _323
REMARK  124  A    between atoms: _323  and  _324
REMARK  125  A    between atoms: _334  and  _336
REMARK  126  A    between atoms: _336  and  _337
REMARK  127  A    between atoms: _336  and  _339
REMARK  128  A    between atoms: _339  and  _340
REMARK  129  A    between atoms: _342  and  _344
REMARK  130  A    between atoms: _344  and  _345
REMARK  131  A    between atoms: _344  and  _347
REMARK  132  A    between atoms: _347  and  _348
REMARK  133  A    between atoms: _354  and  _356
REMARK  134  A    between atoms: _356  and  _357
REMARK  135  A    between atoms: _356  and  _359
REMARK  136  A    between atoms: _359  and  _360
REMARK  137  A    between atoms: _366  and  _368
REMARK  138  A    between atoms: _368  and  _369
REMARK  139  A    between atoms: _368  and  _371
REMARK  140  A    between atoms: _371  and  _372
REMARK  141  A    between atoms: _375  and  _377
REMARK  142  A    between atoms: _377  and  _378
REMARK  143  A    between atoms: _377  and  _380
REMARK  144  A    between atoms: _380  and  _381
REMARK                            x       y       z     vdW  Elec       q    Type
REMARK                         _______ _______ _______ _____ _____    ______ ____
ROOT
ATOM      1  C   TYR A   2      -1.161 -13.006  19.810  0.00  0.00    +0.241 C 
ATOM      2  N   ILE A   3      -1.034 -12.791  21.119  0.00  0.00    -0.297 N 
ATOM      3  H   ILE A   3      -0.371 -12.059  21.445  0.00  0.00    +0.150 HD
ATOM      4  O   TYR A   2      -1.535 -14.058  19.343  0.00  0.00    -0.273 OA
ENDROOT
BRANCH   1   5
ATOM      5  CA  TYR A   2      -0.745 -11.918  18.876  0.00  0.00    +0.153 C 
BRANCH   5   7
ATOM      6  C   GLY A   1       0.429 -11.959  16.773  0.00  0.00    +0.240 C 
ATOM      7  N   TYR A   2      -0.456 -12.529  17.582  0.00  0.00    -0.297 N 
ATOM      8  H   TYR A   2      -0.940 -13.404  17.296  0.00  0.00    +0.150 HD
ATOM      9  O   GLY A   1       1.050 -10.910  17.105  0.00  0.00    -0.274 OA
BRANCH   6  10
ATOM     10  CA  GLY A   1       0.644 -12.642  15.407  0.00  0.00    +0.169 C 
BRANCH  10  11
ATOM     11  N   GLY A   1       1.639 -11.979  14.550  0.00  0.00    -0.236 NA
ATOM     12  H   GLY A   1       1.874 -10.982  14.729  0.00  0.00    +0.142 HD
ENDBRANCH  10  11
ENDBRANCH   6  10
ENDBRANCH   5   7
BRANCH   5  13
ATOM     13  CB  TYR A   2      -1.819 -10.822  18.734  0.00  0.00    +0.055 C 
BRANCH  13  14
ATOM     14  CG  TYR A   2      -3.276 -11.215  18.509  0.00  0.00    -0.020 A 
ATOM     15  CD2 TYR A   2      -3.958 -12.044  19.413  0.00  0.00    -0.001 A 
ATOM     16  CE2 TYR A   2      -5.299 -12.384  19.227  0.00  0.00    +0.036 A 
ATOM     17  CZ  TYR A   2      -5.986 -11.872  18.130  0.00  0.00    +0.134 A 
ATOM     18  CE1 TYR A   2      -5.352 -11.036  17.229  0.00  0.00    +0.036 A 
ATOM     19  CD1 TYR A   2      -3.994 -10.706  17.422  0.00  0.00    -0.001 A 
BRANCH  17  20
ATOM     20  OH  TYR A   2      -7.315 -12.233  17.961  0.00  0.00    -0.506 OA
ATOM     21  HH  TYR A   2      -7.590 -12.831  18.700  0.00  0.00    +0.292 HD
ENDBRANCH  17  20
ENDBRANCH  13  14
ENDBRANCH   5  13
ENDBRANCH   1   5
BRANCH   2  22
ATOM     22  CA  ILE A   3      -1.792 -13.547  22.113  0.00  0.00    +0.149 C 
BRANCH  22  23
ATOM     23  C   ILE A   3      -2.687 -12.537  22.867  0.00  0.00    +0.241 C 
ATOM     24  O   ILE A   3      -2.211 -11.458  23.267  0.00  0.00    -0.273 OA
ATOM     25  N   SER A   4      -3.960 -12.862  23.078  0.00  0.00    -0.296 N 
ATOM     26  H   SER A   4      -4.332 -13.777  22.752  0.00  0.00    +0.150 HD
BRANCH  25  27
ATOM     27  CA  SER A   4      -4.826 -11.917  23.772  0.00  0.00    +0.166 C 
BRANCH  27  28
ATOM     28  C   SER A   4      -4.733 -12.025  25.295  0.00  0.00    +0.229 C 
ATOM     29  O   SER A   4      -3.932 -12.797  25.818  0.00  0.00    -0.286 OA
ENDBRANCH  27  28
BRANCH  27  30
ATOM     30  CB  SER A   4      -6.263 -12.106  23.337  0.00  0.00    +0.165 C 
BRANCH  30  31
ATOM     31  OG  SER A   4      -6.769 -13.185  24.049  0.00  0.00    -0.380 OA
ATOM     32  H   SER A   4      -7.712 -13.338  23.788  0.00  0.00    +0.211 HD
ENDBRANCH  30  31
ENDBRANCH  27  30
ENDBRANCH  25  27
ENDBRANCH  22  23
BRANCH  22  33
ATOM     33  CB  ILE A   3      -0.869 -14.301  23.082  0.00  0.00    +0.027 C 
ATOM     34  CG2 ILE A   3       0.059 -13.314  23.896  0.00  0.00    +0.002 C 
BRANCH  33  35
ATOM     35  CG1 ILE A   3      -1.676 -15.257  23.966  0.00  0.00    +0.002 C 
ATOM     36  CD1 ILE A   3      -0.785 -16.288  24.729  0.00  0.00    +0.000 C 
ENDBRANCH  33  35
ENDBRANCH  22  33
ENDBRANCH   2  22
TORSDOF 15
REMARK  Name = ../refined-set-2016/4lar/4lar_pocket.pdb
REMARK  144 active torsions:
REMARK  status: ('A' for Active; 'I' for Inactive)
REMARK    1  A    between atoms: _1  and  _3
REMARK    2  A    between atoms: _3  and  _4
REMARK    3  A    between atoms: _6  and  _8
REMARK    4  A    between atoms: _8  and  _9
REMARK    5  A    between atoms: _8  and  _11
REMARK    6  A    between atoms: _11  and  _12
REMARK    7  A    between atoms: _17  and  _18
REMARK    8  A    between atoms: _20  and  _22
REMARK    9  A    between atoms: _22  and  _23
REMARK   10  A    between atoms: _22  and  _25
REMARK   11  A    between atoms: _25  and  _26
REMARK   12  A    between atoms: _36  and  _38
REMARK   13  A    between atoms: _38  and  _39
REMARK   14  A    between atoms: _38  and  _41
REMARK   15  A    between atoms: _41  and  _42
REMARK   16  A    between atoms: _44  and  _46
REMARK   17  A    between atoms: _46  and  _47
REMARK   18  A    between atoms: _46  and  _49
REMARK   19  A    between atoms: _49  and  _50
REMARK   20  A    between atoms: _60  and  _62
REMARK   21  A    between atoms: _62  and  _63
REMARK   22  A    between atoms: _62  and  _65
REMARK   23  A    between atoms: _65  and  _66
REMARK   24  A    between atoms: _69  and  _71
REMARK   25  A    between atoms: _71  and  _72
REMARK   26  A    between atoms: _71  and  _74
REMARK   27  A    between atoms: _74  and  _75
REMARK   28  A    between atoms: _80  and  _81
REMARK   29  A    between atoms: _83  and  _85
REMARK   30  A    between atoms: _85  and  _86
REMARK   31  A    between atoms: _88  and  _90
REMARK   32  A    between atoms: _90  and  _91
REMARK   33  A    between atoms: _90  and  _93
REMARK   34  A    between atoms: _93  and  _94
REMARK   35  A    between atoms: _99  and  _100
REMARK   36  A    between atoms: _102  and  _104
REMARK   37  A    between atoms: _104  and  _105
REMARK   38  A    between atoms: _104  and  _107
REMARK   39  A    between atoms: _107  and  _108
REMARK   40  A    between atoms: _111  and  _113
REMARK   41  A    between atoms: _113  and  _114
REMARK   42  A    between atoms: _113  and  _116
REMARK   43  A    between atoms: _116  and  _117
REMARK   44  A    between atoms: _119  and  _121
REMARK   45  A    between atoms: _121  and  _122
REMARK   46  A    between atoms: _121  and  _124
REMARK   47  A    between atoms: _124  and  _125
REMARK   48  A    between atoms: _130  and  _131
REMARK   49  A    between atoms: _133  and  _135
REMARK   50  A    between atoms: _135  and  _136
REMARK   51  A    between atoms: _135  and  _138
REMARK   52  A    between atoms: _138  and  _139
REMARK   53  A    between atoms: _141  and  _143
REMARK   54  A    between atoms: _143  and  _144
REMARK   55  A    between atoms: _143  and  _146
REMARK   56  A    between atoms: _146  and  _147
REMARK   57  A    between atoms: _152  and  _153
REMARK   58  A    between atoms: _155  and  _157
REMARK   59  A    between atoms: _157  and  _158
REMARK   60  A    between atoms: _157  and  _160
REMARK   61  A    between atoms: _160  and  _161
REMARK   62  A    between atoms: _167  and  _169
REMARK   63  A    between atoms: _169  and  _170
REMARK   64  A    between atoms: _169  and  _172
REMARK   65  A    between atoms: _172  and  _173
REMARK   66  A    between atoms: _176  and  _178
REMARK   67  A    between atoms: _178  and  _179
REMARK   68  A    between atoms: _178  and  _181
REMARK   69  A    between atoms: _181  and  _182
REMARK   70  A    between atoms: _184  and  _186
REMARK   71  A    between atoms: _186  and  _187
REMARK   72  A    between atoms: _186  and  _189
REMARK   73  A    between atoms: _189  and  _190
REMARK   74  A    between atoms: _195  and  _196
REMARK   75  A    between atoms: _198  and  _200
REMARK   76  A    between atoms: _200  and  _201
REMARK   77  A    between atoms: _200  and  _203
REMARK   78  A    between atoms: _203  and  _204
REMARK   79  A    between atoms: _204  and  _205
REMARK   80  A    between atoms: _207  and  _209
REMARK   81  A    between atoms: _209  and  _210
REMARK   82  A    between atoms: _209  and  _212
REMARK   83  A    between atoms: _212  and  _213
REMARK   84  A    between atoms: _213  and  _214
REMARK   85  A    between atoms: _217  and  _219
REMARK   86  A    between atoms: _219  and  _220
REMARK   87  A    between atoms: _219  and  _222
REMARK   88  A    between atoms: _222  and  _223
REMARK   89  A    between atoms: _228  and  _229
REMARK   90  A    between atoms: _231  and  _233
REMARK   91  A    between atoms: _233  and  _234
REMARK   92  A    between atoms: _233  and  _236
REMARK   93  A    between atoms: _236  and  _237
REMARK   94  A    between atoms: _247  and  _249
REMARK   95  A    between atoms: _249  and  _250
REMARK   96  A    between atoms: _249  and  _252
REMARK   97  A    between atoms: _252  and  _253
REMARK   98  A    between atoms: _258  and  _260
REMARK   99  A    between atoms: _260  and  _261
REMARK  100  A    between atoms: _260  and  _263
REMARK  101  A    between atoms: _263  and  _264
REMARK  102  A    between atoms: _269  and  _270
REMARK  103  A    between atoms: _272  and  _274
REMARK  104  A    between atoms: _274  and  _275
REMARK  105  A    between atoms: _274  and  _277
REMARK  106  A    between atoms: _277  and  _278
REMARK  107  A    between atoms: _283  and  _284
REMARK  108  A    between atoms: _286  and  _288
REMARK  109  A    between atoms: _288  and  _289
REMARK  110  A    between atoms: _288  and  _291
REMARK  111  A    between atoms: _291  and  _292
REMARK  112  A    between atoms: _295  and  _297
REMARK  113  A    between atoms: _297  and  _298
REMARK  114  A    between atoms: _297  and  _300
REMARK  115  A    between atoms: _300  and  _301
REMARK  116  A    between atoms: _306  and  _308
REMARK  117  A    between atoms: _308  and  _309
REMARK  118  A    between atoms: _308  and  _311
REMARK  119  A    between atoms: _311  and  _312
REMARK  120  A    between atoms: _312  and  _313
REMARK  121  A    between atoms: _318  and  _320
REMARK  122  A    between atoms: _320  and  _321
REMARK  123  A    between atoms: _320  and  _323
REMARK  124  A    between atoms: _323  and  _324
REMARK  125  A    between atoms: _334  and  _336
REMARK  126  A    between atoms: _336  and  _337
REMARK  127  A    between atoms: _336  and  _339
REMARK  128  A    between atoms: _339  and  _340
REMARK  129  A    between atoms: _342  and  _344
REMARK  130  A    between atoms: _344  and  _345
REMARK  131  A    between atoms: _344  and  _347
REMARK  132  A    between atoms: _347  and  _348
REMARK  133  A    between atoms: _354  and  _356
REMARK  134  A    between atoms: _356  and  _357
REMARK  135  A    between atoms: _356  and  _359
REMARK  136  A    between atoms: _359  and  _360
REMARK  137  A    between atoms: _366  and  _368
REMARK  138  A    between atoms: _368  and  _369
REMARK  139  A    between atoms: _368  and  _371
REMARK  140  A    between atoms: _371  and  _372
REMARK  141  A    between atoms: _375  and  _377
REMARK  142  A    between atoms: _377  and  _378
REMARK  143  A    between atoms: _377  and  _380
REMARK  144  A    between atoms: _380  and  _381
REMARK                            x       y       z     vdW  Elec       q    Type
REMARK                         _______ _______ _______ _____ _____    ______ ____
ROOT
ATOM      1  CG  TYR A   1      -4.376 -14.021  14.125  0.00  0.00    -0.020 A 
ATOM      2  CD2 TYR A   1      -3.408 -13.043  13.682  0.00  0.00    -0.001 A 
ATOM      3  CE2 TYR A   1      -3.222 -12.792  12.344  0.00  0.00    +0.036 A 
ATOM      4  CZ  TYR A   1      -3.988 -13.515  11.405  0.00  0.00    +0.134 A 
ATOM      5  CE1 TYR A   1      -4.936 -14.475  11.808  0.00  0.00    +0.036 A 
ATOM      6  CD1 TYR A   1      -5.111 -14.734  13.152  0.00  0.00    -0.001 A 
ENDROOT
BRANCH   4   7
ATOM      7  OH  TYR A   1      -3.834 -13.288  10.046  0.00  0.00    -0.506 OA
ATOM      8  HH  TYR A   1      -4.447 -13.880   9.542  0.00  0.00    +0.292 HD
ENDBRANCH   4   7
BRANCH   1   9
ATOM      9  CB  TYR A   1      -4.541 -14.347  15.590  0.00  0.00    +0.051 C 
BRANCH   9  10
ATOM     10  CA  TYR A   1      -3.630 -15.524  15.969  0.00  0.00    +0.137 C 
BRANCH  10  11
ATOM     11  N   TYR A   1      -3.350 -15.609  17.397  0.00  0.00    -0.239 NA
ATOM     12  H   TYR A   1      -2.542 -15.082  17.785  0.00  0.00    +0.142 HD
ENDBRANCH  10  11
BRANCH  10  13
ATOM     13  C   TYR A   1      -2.287 -15.387  15.298  0.00  0.00    +0.224 C 
ATOM     14  O   TYR A   1      -1.481 -14.538  15.729  0.00  0.00    -0.287 OA
ENDBRANCH  10  13
ENDBRANCH   9  10
ENDBRANCH   1   9
TORSDOF 5
REMARK  Name = ../refined-set-2016/4lar/4lar_pocket.pdb
REMARK  144 active torsions:
REMARK  status: ('A' for Active; 'I' for Inactive)
REMARK    1  A    between atoms: _1  and  _3
REMARK    2  A    between atoms: _3  and  _4
REMARK    3  A    between atoms: _6  and  _8
REMARK    4  A    between atoms: _8  and  _9
REMARK    5  A    between atoms: _8  and  _11
REMARK    6  A    between atoms: _11  and  _12
REMARK    7  A    between atoms: _17  and  _18
REMARK    8  A    between atoms: _20  and  _22
REMARK    9  A    between atoms: _22  and  _23
REMARK   10  A    between atoms: _22  and  _25
REMARK   11  A    between atoms: _25  and  _26
REMARK   12  A    between atoms: _36  and  _38
REMARK   13  A    between atoms: _38  and  _39
REMARK   14  A    between atoms: _38  and  _41
REMARK   15  A    between atoms: _41  and  _42
REMARK   16  A    between atoms: _44  and  _46
REMARK   17  A    between atoms: _46  and  _47
REMARK   18  A    between atoms: _46  and  _49
REMARK   19  A    between atoms: _49  and  _50
REMARK   20  A    between atoms: _60  and  _62
REMARK   21  A    between atoms: _62  and  _63
REMARK   22  A    between atoms: _62  and  _65
REMARK   23  A    between atoms: _65  and  _66
REMARK   24  A    between atoms: _69  and  _71
REMARK   25  A    between atoms: _71  and  _72
REMARK   26  A    between atoms: _71  and  _74
REMARK   27  A    between atoms: _74  and  _75
REMARK   28  A    between atoms: _80  and  _81
REMARK   29  A    between atoms: _83  and  _85
REMARK   30  A    between atoms: _85  and  _86
REMARK   31  A    between atoms: _88  and  _90
REMARK   32  A    between atoms: _90  and  _91
REMARK   33  A    between atoms: _90  and  _93
REMARK   34  A    between atoms: _93  and  _94
REMARK   35  A    between atoms: _99  and  _100
REMARK   36  A    between atoms: _102  and  _104
REMARK   37  A    between atoms: _104  and  _105
REMARK   38  A    between atoms: _104  and  _107
REMARK   39  A    between atoms: _107  and  _108
REMARK   40  A    between atoms: _111  and  _113
REMARK   41  A    between atoms: _113  and  _114
REMARK   42  A    between atoms: _113  and  _116
REMARK   43  A    between atoms: _116  and  _117
REMARK   44  A    between atoms: _119  and  _121
REMARK   45  A    between atoms: _121  and  _122
REMARK   46  A    between atoms: _121  and  _124
REMARK   47  A    between atoms: _124  and  _125
REMARK   48  A    between atoms: _130  and  _131
REMARK   49  A    between atoms: _133  and  _135
REMARK   50  A    between atoms: _135  and  _136
REMARK   51  A    between atoms: _135  and  _138
REMARK   52  A    between atoms: _138  and  _139
REMARK   53  A    between atoms: _141  and  _143
REMARK   54  A    between atoms: _143  and  _144
REMARK   55  A    between atoms: _143  and  _146
REMARK   56  A    between atoms: _146  and  _147
REMARK   57  A    between atoms: _152  and  _153
REMARK   58  A    between atoms: _155  and  _157
REMARK   59  A    between atoms: _157  and  _158
REMARK   60  A    between atoms: _157  and  _160
REMARK   61  A    between atoms: _160  and  _161
REMARK   62  A    between atoms: _167  and  _169
REMARK   63  A    between atoms: _169  and  _170
REMARK   64  A    between atoms: _169  and  _172
REMARK   65  A    between atoms: _172  and  _173
REMARK   66  A    between atoms: _176  and  _178
REMARK   67  A    between atoms: _178  and  _179
REMARK   68  A    between atoms: _178  and  _181
REMARK   69  A    between atoms: _181  and  _182
REMARK   70  A    between atoms: _184  and  _186
REMARK   71  A    between atoms: _186  and  _187
REMARK   72  A    between atoms: _186  and  _189
REMARK   73  A    between atoms: _189  and  _190
REMARK   74  A    between atoms: _195  and  _196
REMARK   75  A    between atoms: _198  and  _200
REMARK   76  A    between atoms: _200  and  _201
REMARK   77  A    between atoms: _200  and  _203
REMARK   78  A    between atoms: _203  and  _204
REMARK   79  A    between atoms: _204  and  _205
REMARK   80  A    between atoms: _207  and  _209
REMARK   81  A    between atoms: _209  and  _210
REMARK   82  A    between atoms: _209  and  _212
REMARK   83  A    between atoms: _212  and  _213
REMARK   84  A    between atoms: _213  and  _214
REMARK   85  A    between atoms: _217  and  _219
REMARK   86  A    between atoms: _219  and  _220
REMARK   87  A    between atoms: _219  and  _222
REMARK   88  A    between atoms: _222  and  _223
REMARK   89  A    between atoms: _228  and  _229
REMARK   90  A    between atoms: _231  and  _233
REMARK   91  A    between atoms: _233  and  _234
REMARK   92  A    between atoms: _233  and  _236
REMARK   93  A    between atoms: _236  and  _237
REMARK   94  A    between atoms: _247  and  _249
REMARK   95  A    between atoms: _249  and  _250
REMARK   96  A    between atoms: _249  and  _252
REMARK   97  A    between atoms: _252  and  _253
REMARK   98  A    between atoms: _258  and  _260
REMARK   99  A    between atoms: _260  and  _261
REMARK  100  A    between atoms: _260  and  _263
REMARK  101  A    between atoms: _263  and  _264
REMARK  102  A    between atoms: _269  and  _270
REMARK  103  A    between atoms: _272  and  _274
REMARK  104  A    between atoms: _274  and  _275
REMARK  105  A    between atoms: _274  and  _277
REMARK  106  A    between atoms: _277  and  _278
REMARK  107  A    between atoms: _283  and  _284
REMARK  108  A    between atoms: _286  and  _288
REMARK  109  A    between atoms: _288  and  _289
REMARK  110  A    between atoms: _288  and  _291
REMARK  111  A    between atoms: _291  and  _292
REMARK  112  A    between atoms: _295  and  _297
REMARK  113  A    between atoms: _297  and  _298
REMARK  114  A    between atoms: _297  and  _300
REMARK  115  A    between atoms: _300  and  _301
REMARK  116  A    between atoms: _306  and  _308
REMARK  117  A    between atoms: _308  and  _309
REMARK  118  A    between atoms: _308  and  _311
REMARK  119  A    between atoms: _311  and  _312
REMARK  120  A    between atoms: _312  and  _313
REMARK  121  A    between atoms: _318  and  _320
REMARK  122  A    between atoms: _320  and  _321
REMARK  123  A    between atoms: _320  and  _323
REMARK  124  A    between atoms: _323  and  _324
REMARK  125  A    between atoms: _334  and  _336
REMARK  126  A    between atoms: _336  and  _337
REMARK  127  A    between atoms: _336  and  _339
REMARK  128  A    between atoms: _339  and  _340
REMARK  129  A    between atoms: _342  and  _344
REMARK  130  A    between atoms: _344  and  _345
REMARK  131  A    between atoms: _344  and  _347
REMARK  132  A    between atoms: _347  and  _348
REMARK  133  A    between atoms: _354  and  _356
REMARK  134  A    between atoms: _356  and  _357
REMARK  135  A    between atoms: _356  and  _359
REMARK  136  A    between atoms: _359  and  _360
REMARK  137  A    between atoms: _366  and  _368
REMARK  138  A    between atoms: _368  and  _369
REMARK  139  A    between atoms: _368  and  _371
REMARK  140  A    between atoms: _371  and  _372
REMARK  141  A    between atoms: _375  and  _377
REMARK  142  A    between atoms: _377  and  _378
REMARK  143  A    between atoms: _377  and  _380
REMARK  144  A    between atoms: _380  and  _381
REMARK                            x       y       z     vdW  Elec       q    Type
REMARK                         _______ _______ _______ _____ _____    ______ ____
ROOT
ATOM      1  CA  PHE A   3      -3.056  -2.571  22.377  0.00  0.00    +0.153 C 
ENDROOT
BRANCH   1   3
ATOM      2  C   TYR A   2      -0.723  -2.887  22.995  0.00  0.00    +0.241 C 
ATOM      3  N   PHE A   3      -1.954  -3.366  22.936  0.00  0.00    -0.297 N 
ATOM      4  H   PHE A   3      -2.146  -4.324  23.292  0.00  0.00    +0.150 HD
ATOM      5  O   TYR A   2      -0.459  -1.747  22.700  0.00  0.00    -0.273 OA
BRANCH   2   6
ATOM      6  CA  TYR A   2       0.360  -3.809  23.489  0.00  0.00    +0.153 C 
BRANCH   6   8
ATOM      7  C   SER A   1       2.132  -4.501  21.918  0.00  0.00    +0.241 C 
ATOM      8  N   TYR A   2       1.638  -3.624  22.804  0.00  0.00    -0.297 N 
ATOM      9  H   TYR A   2       2.192  -2.769  23.014  0.00  0.00    +0.150 HD
ATOM     10  O   SER A   1       1.588  -5.571  21.587  0.00  0.00    -0.274 OA
BRANCH   7  11
ATOM     11  CA  SER A   1       3.458  -4.109  21.305  0.00  0.00    +0.174 C 
BRANCH  11  12
ATOM     12  N   SER A   1       4.289  -5.273  21.232  0.00  0.00    -0.236 NA
ATOM     13  H   SER A   1       3.850  -6.215  21.207  0.00  0.00    +0.142 HD
ENDBRANCH  11  12
BRANCH  11  14
ATOM     14  CB  SER A   1       3.253  -3.516  19.917  0.00  0.00    +0.163 C 
BRANCH  14  15
ATOM     15  OG  SER A   1       1.910  -3.705  19.538  0.00  0.00    -0.380 OA
ATOM     16  H   SER A   1       1.706  -4.674  19.524  0.00  0.00    +0.211 HD
ENDBRANCH  14  15
ENDBRANCH  11  14
ENDBRANCH   7  11
ENDBRANCH   6   8
BRANCH   6  17
ATOM     17  CB  TYR A   2       0.527  -3.610  24.980  0.00  0.00    +0.055 C 
BRANCH  17  18
ATOM     18  CG  TYR A   2      -0.798  -3.596  25.723  0.00  0.00    -0.020 A 
ATOM     19  CD2 TYR A   2      -1.391  -2.399  26.146  0.00  0.00    -0.001 A 
ATOM     20  CE2 TYR A   2      -2.632  -2.415  26.829  0.00  0.00    +0.036 A 
ATOM     21  CZ  TYR A   2      -3.230  -3.642  27.118  0.00  0.00    +0.134 A 
ATOM     22  CE1 TYR A   2      -2.636  -4.826  26.728  0.00  0.00    +0.036 A 
ATOM     23  CD1 TYR A   2      -1.444  -4.793  26.020  0.00  0.00    -0.001 A 
BRANCH  21  24
ATOM     24  OH  TYR A   2      -4.438  -3.708  27.782  0.00  0.00    -0.506 OA
ATOM     25  HH  TYR A   2      -4.700  -4.656  27.895  0.00  0.00    +0.292 HD
ENDBRANCH  21  24
ENDBRANCH  17  18
ENDBRANCH   6  17
ENDBRANCH   2   6
ENDBRANCH   1   3
BRANCH   1  26
ATOM     26  C   PHE A   3      -4.359  -3.030  22.943  0.00  0.00    +0.241 C 
ATOM     27  N   ASP A   4      -5.190  -2.066  23.275  0.00  0.00    -0.297 N 
ATOM     28  H   ASP A   4      -4.957  -1.076  23.056  0.00  0.00    +0.150 HD
ATOM     29  O   PHE A   3      -4.627  -4.223  23.049  0.00  0.00    -0.273 OA
BRANCH  27  30
ATOM     30  CA  ASP A   4      -6.406  -2.384  23.933  0.00  0.00    +0.160 C 
BRANCH  30  31
ATOM     31  C   ASP A   4      -7.520  -2.085  22.990  0.00  0.00    +0.241 C 
ATOM     32  O   ASP A   4      -7.764  -0.911  22.674  0.00  0.00    -0.273 OA
ATOM     33  N   SER A   5      -8.180  -3.149  22.536  0.00  0.00    -0.296 N 
ATOM     34  H   SER A   5      -7.898  -4.083  22.896  0.00  0.00    +0.150 HD
BRANCH  33  35
ATOM     35  CA  SER A   5      -9.290  -3.093  21.552  0.00  0.00    +0.166 C 
BRANCH  35  36
ATOM     36  CB  SER A   5     -10.385  -2.097  21.924  0.00  0.00    +0.229 C 
ATOM     37  OG  SER A   5     -11.027  -1.511  21.044  0.00  0.00    -0.286 OA
ENDBRANCH  35  36
BRANCH  35  38
ATOM     38  C   SER A   5      -9.877  -4.498  21.324  0.00  0.00    +0.165 C 
BRANCH  38  39
ATOM     39  O   SER A   5      -9.652  -5.314  22.487  0.00  0.00    -0.380 OA
ATOM     40  H   SER A   5     -10.031  -6.216  22.335  0.00  0.00    +0.211 HD
ENDBRANCH  38  39
ENDBRANCH  35  38
ENDBRANCH  33  35
ENDBRANCH  30  31
BRANCH  30  41
ATOM     41  CB  ASP A   4      -6.544  -1.548  25.186  0.00  0.00    +0.143 C 
BRANCH  41  42
ATOM     42  CG  ASP A   4      -7.828  -1.843  25.912  0.00  0.00    +0.367 C 
ATOM     43  OD2 ASP A   4      -8.078  -3.030  26.210  0.00  0.00    -0.246 OA
ATOM     44  OD1 ASP A   4      -8.601  -0.899  26.155  0.00  0.00    -0.246 OA
ENDBRANCH  41  42
ENDBRANCH  30  41
ENDBRANCH  27  30
ENDBRANCH   1  26
BRANCH   1  45
ATOM     45  CB  PHE A   3      -3.110  -2.684  20.833  0.00  0.00    +0.055 C 
BRANCH  45  46
ATOM     46  CG  PHE A   3      -4.334  -2.050  20.188  0.00  0.00    -0.020 A 
ATOM     47  CD2 PHE A   3      -5.499  -2.807  19.953  0.00  0.00    -0.004 A 
ATOM     48  CE2 PHE A   3      -6.626  -2.226  19.331  0.00  0.00    -0.000 A 
ATOM     49  CZ  PHE A   3      -6.580  -0.862  18.926  0.00  0.00    -0.000 A 
ATOM     50  CE1 PHE A   3      -5.421  -0.122  19.145  0.00  0.00    -0.000 A 
ATOM     51  CD1 PHE A   3      -4.303  -0.721  19.763  0.00  0.00    -0.004 A 
ENDBRANCH  45  46
ENDBRANCH   1  45
TORSDOF 21
REMARK  Name = ../refined-set-2016/4lar/4lar_pocket.pdb
REMARK  144 active torsions:
REMARK  status: ('A' for Active; 'I' for Inactive)
REMARK    1  A    between atoms: _1  and  _3
REMARK    2  A    between atoms: _3  and  _4
REMARK    3  A    between atoms: _6  and  _8
REMARK    4  A    between atoms: _8  and  _9
REMARK    5  A    between atoms: _8  and  _11
REMARK    6  A    between atoms: _11  and  _12
REMARK    7  A    between atoms: _17  and  _18
REMARK    8  A    between atoms: _20  and  _22
REMARK    9  A    between atoms: _22  and  _23
REMARK   10  A    between atoms: _22  and  _25
REMARK   11  A    between atoms: _25  and  _26
REMARK   12  A    between atoms: _36  and  _38
REMARK   13  A    between atoms: _38  and  _39
REMARK   14  A    between atoms: _38  and  _41
REMARK   15  A    between atoms: _41  and  _42
REMARK   16  A    between atoms: _44  and  _46
REMARK   17  A    between atoms: _46  and  _47
REMARK   18  A    between atoms: _46  and  _49
REMARK   19  A    between atoms: _49  and  _50
REMARK   20  A    between atoms: _60  and  _62
REMARK   21  A    between atoms: _62  and  _63
REMARK   22  A    between atoms: _62  and  _65
REMARK   23  A    between atoms: _65  and  _66
REMARK   24  A    between atoms: _69  and  _71
REMARK   25  A    between atoms: _71  and  _72
REMARK   26  A    between atoms: _71  and  _74
REMARK   27  A    between atoms: _74  and  _75
REMARK   28  A    between atoms: _80  and  _81
REMARK   29  A    between atoms: _83  and  _85
REMARK   30  A    between atoms: _85  and  _86
REMARK   31  A    between atoms: _88  and  _90
REMARK   32  A    between atoms: _90  and  _91
REMARK   33  A    between atoms: _90  and  _93
REMARK   34  A    between atoms: _93  and  _94
REMARK   35  A    between atoms: _99  and  _100
REMARK   36  A    between atoms: _102  and  _104
REMARK   37  A    between atoms: _104  and  _105
REMARK   38  A    between atoms: _104  and  _107
REMARK   39  A    between atoms: _107  and  _108
REMARK   40  A    between atoms: _111  and  _113
REMARK   41  A    between atoms: _113  and  _114
REMARK   42  A    between atoms: _113  and  _116
REMARK   43  A    between atoms: _116  and  _117
REMARK   44  A    between atoms: _119  and  _121
REMARK   45  A    between atoms: _121  and  _122
REMARK   46  A    between atoms: _121  and  _124
REMARK   47  A    between atoms: _124  and  _125
REMARK   48  A    between atoms: _130  and  _131
REMARK   49  A    between atoms: _133  and  _135
REMARK   50  A    between atoms: _135  and  _136
REMARK   51  A    between atoms: _135  and  _138
REMARK   52  A    between atoms: _138  and  _139
REMARK   53  A    between atoms: _141  and  _143
REMARK   54  A    between atoms: _143  and  _144
REMARK   55  A    between atoms: _143  and  _146
REMARK   56  A    between atoms: _146  and  _147
REMARK   57  A    between atoms: _152  and  _153
REMARK   58  A    between atoms: _155  and  _157
REMARK   59  A    between atoms: _157  and  _158
REMARK   60  A    between atoms: _157  and  _160
REMARK   61  A    between atoms: _160  and  _161
REMARK   62  A    between atoms: _167  and  _169
REMARK   63  A    between atoms: _169  and  _170
REMARK   64  A    between atoms: _169  and  _172
REMARK   65  A    between atoms: _172  and  _173
REMARK   66  A    between atoms: _176  and  _178
REMARK   67  A    between atoms: _178  and  _179
REMARK   68  A    between atoms: _178  and  _181
REMARK   69  A    between atoms: _181  and  _182
REMARK   70  A    between atoms: _184  and  _186
REMARK   71  A    between atoms: _186  and  _187
REMARK   72  A    between atoms: _186  and  _189
REMARK   73  A    between atoms: _189  and  _190
REMARK   74  A    between atoms: _195  and  _196
REMARK   75  A    between atoms: _198  and  _200
REMARK   76  A    between atoms: _200  and  _201
REMARK   77  A    between atoms: _200  and  _203
REMARK   78  A    between atoms: _203  and  _204
REMARK   79  A    between atoms: _204  and  _205
REMARK   80  A    between atoms: _207  and  _209
REMARK   81  A    between atoms: _209  and  _210
REMARK   82  A    between atoms: _209  and  _212
REMARK   83  A    between atoms: _212  and  _213
REMARK   84  A    between atoms: _213  and  _214
REMARK   85  A    between atoms: _217  and  _219
REMARK   86  A    between atoms: _219  and  _220
REMARK   87  A    between atoms: _219  and  _222
REMARK   88  A    between atoms: _222  and  _223
REMARK   89  A    between atoms: _228  and  _229
REMARK   90  A    between atoms: _231  and  _233
REMARK   91  A    between atoms: _233  and  _234
REMARK   92  A    between atoms: _233  and  _236
REMARK   93  A    between atoms: _236  and  _237
REMARK   94  A    between atoms: _247  and  _249
REMARK   95  A    between atoms: _249  and  _250
REMARK   96  A    between atoms: _249  and  _252
REMARK   97  A    between atoms: _252  and  _253
REMARK   98  A    between atoms: _258  and  _260
REMARK   99  A    between atoms: _260  and  _261
REMARK  100  A    between atoms: _260  and  _263
REMARK  101  A    between atoms: _263  and  _264
REMARK  102  A    between atoms: _269  and  _270
REMARK  103  A    between atoms: _272  and  _274
REMARK  104  A    between atoms: _274  and  _275
REMARK  105  A    between atoms: _274  and  _277
REMARK  106  A    between atoms: _277  and  _278
REMARK  107  A    between atoms: _283  and  _284
REMARK  108  A    between atoms: _286  and  _288
REMARK  109  A    between atoms: _288  and  _289
REMARK  110  A    between atoms: _288  and  _291
REMARK  111  A    between atoms: _291  and  _292
REMARK  112  A    between atoms: _295  and  _297
REMARK  113  A    between atoms: _297  and  _298
REMARK  114  A    between atoms: _297  and  _300
REMARK  115  A    between atoms: _300  and  _301
REMARK  116  A    between atoms: _306  and  _308
REMARK  117  A    between atoms: _308  and  _309
REMARK  118  A    between atoms: _308  and  _311
REMARK  119  A    between atoms: _311  and  _312
REMARK  120  A    between atoms: _312  and  _313
REMARK  121  A    between atoms: _318  and  _320
REMARK  122  A    between atoms: _320  and  _321
REMARK  123  A    between atoms: _320  and  _323
REMARK  124  A    between atoms: _323  and  _324
REMARK  125  A    between atoms: _334  and  _336
REMARK  126  A    between atoms: _336  and  _337
REMARK  127  A    between atoms: _336  and  _339
REMARK  128  A    between atoms: _339  and  _340
REMARK  129  A    between atoms: _342  and  _344
REMARK  130  A    between atoms: _344  and  _345
REMARK  131  A    between atoms: _344  and  _347
REMARK  132  A    between atoms: _347  and  _348
REMARK  133  A    between atoms: _354  and  _356
REMARK  134  A    between atoms: _356  and  _357
REMARK  135  A    between atoms: _356  and  _359
REMARK  136  A    between atoms: _359  and  _360
REMARK  137  A    between atoms: _366  and  _368
REMARK  138  A    between atoms: _368  and  _369
REMARK  139  A    between atoms: _368  and  _371
REMARK  140  A    between atoms: _371  and  _372
REMARK  141  A    between atoms: _375  and  _377
REMARK  142  A    between atoms: _377  and  _378
REMARK  143  A    between atoms: _377  and  _380
REMARK  144  A    between atoms: _380  and  _381
REMARK                            x       y       z     vdW  Elec       q    Type
REMARK                         _______ _______ _______ _____ _____    ______ ____
ROOT
ATOM      1  CG  TYR A   1     -10.278   2.122  18.100  0.00  0.00    -0.020 A 
ATOM      2  CD2 TYR A   1     -10.757   0.994  18.788  0.00  0.00    -0.001 A 
ATOM      3  CE2 TYR A   1     -11.445  -0.016  18.129  0.00  0.00    +0.036 A 
ATOM      4  CZ  TYR A   1     -11.664   0.097  16.771  0.00  0.00    +0.134 A 
ATOM      5  CE1 TYR A   1     -11.201   1.206  16.049  0.00  0.00    +0.036 A 
ATOM      6  CD1 TYR A   1     -10.495   2.207  16.718  0.00  0.00    -0.001 A 
ENDROOT
BRANCH   4   7
ATOM      7  OH  TYR A   1     -12.338  -0.910  16.142  0.00  0.00    -0.506 OA
ATOM      8  HH  TYR A   1     -11.758  -1.309  15.446  0.00  0.00    +0.292 HD
ENDBRANCH   4   7
BRANCH   1   9
ATOM      9  CB  TYR A   1      -9.549   3.197  18.830  0.00  0.00    +0.051 C 
BRANCH   9  10
ATOM     10  CA  TYR A   1      -8.406   2.639  19.661  0.00  0.00    +0.137 C 
BRANCH  10  11
ATOM     11  N   TYR A   1      -8.897   2.354  21.018  0.00  0.00    -0.239 NA
ATOM     12  H   TYR A   1      -9.915   2.187  21.148  0.00  0.00    +0.142 HD
ENDBRANCH  10  11
BRANCH  10  13
ATOM     13  C   TYR A   1      -7.211   3.582  19.526  0.00  0.00    +0.224 C 
ATOM     14  O   TYR A   1      -6.351   3.396  18.656  0.00  0.00    -0.287 OA
ENDBRANCH  10  13
ENDBRANCH   9  10
ENDBRANCH   1   9
TORSDOF 5
REMARK  Name = ../refined-set-2016/4lar/4lar_pocket.pdb
REMARK  144 active torsions:
REMARK  status: ('A' for Active; 'I' for Inactive)
REMARK    1  A    between atoms: _1  and  _3
REMARK    2  A    between atoms: _3  and  _4
REMARK    3  A    between atoms: _6  and  _8
REMARK    4  A    between atoms: _8  and  _9
REMARK    5  A    between atoms: _8  and  _11
REMARK    6  A    between atoms: _11  and  _12
REMARK    7  A    between atoms: _17  and  _18
REMARK    8  A    between atoms: _20  and  _22
REMARK    9  A    between atoms: _22  and  _23
REMARK   10  A    between atoms: _22  and  _25
REMARK   11  A    between atoms: _25  and  _26
REMARK   12  A    between atoms: _36  and  _38
REMARK   13  A    between atoms: _38  and  _39
REMARK   14  A    between atoms: _38  and  _41
REMARK   15  A    between atoms: _41  and  _42
REMARK   16  A    between atoms: _44  and  _46
REMARK   17  A    between atoms: _46  and  _47
REMARK   18  A    between atoms: _46  and  _49
REMARK   19  A    between atoms: _49  and  _50
REMARK   20  A    between atoms: _60  and  _62
REMARK   21  A    between atoms: _62  and  _63
REMARK   22  A    between atoms: _62  and  _65
REMARK   23  A    between atoms: _65  and  _66
REMARK   24  A    between atoms: _69  and  _71
REMARK   25  A    between atoms: _71  and  _72
REMARK   26  A    between atoms: _71  and  _74
REMARK   27  A    between atoms: _74  and  _75
REMARK   28  A    between atoms: _80  and  _81
REMARK   29  A    between atoms: _83  and  _85
REMARK   30  A    between atoms: _85  and  _86
REMARK   31  A    between atoms: _88  and  _90
REMARK   32  A    between atoms: _90  and  _91
REMARK   33  A    between atoms: _90  and  _93
REMARK   34  A    between atoms: _93  and  _94
REMARK   35  A    between atoms: _99  and  _100
REMARK   36  A    between atoms: _102  and  _104
REMARK   37  A    between atoms: _104  and  _105
REMARK   38  A    between atoms: _104  and  _107
REMARK   39  A    between atoms: _107  and  _108
REMARK   40  A    between atoms: _111  and  _113
REMARK   41  A    between atoms: _113  and  _114
REMARK   42  A    between atoms: _113  and  _116
REMARK   43  A    between atoms: _116  and  _117
REMARK   44  A    between atoms: _119  and  _121
REMARK   45  A    between atoms: _121  and  _122
REMARK   46  A    between atoms: _121  and  _124
REMARK   47  A    between atoms: _124  and  _125
REMARK   48  A    between atoms: _130  and  _131
REMARK   49  A    between atoms: _133  and  _135
REMARK   50  A    between atoms: _135  and  _136
REMARK   51  A    between atoms: _135  and  _138
REMARK   52  A    between atoms: _138  and  _139
REMARK   53  A    between atoms: _141  and  _143
REMARK   54  A    between atoms: _143  and  _144
REMARK   55  A    between atoms: _143  and  _146
REMARK   56  A    between atoms: _146  and  _147
REMARK   57  A    between atoms: _152  and  _153
REMARK   58  A    between atoms: _155  and  _157
REMARK   59  A    between atoms: _157  and  _158
REMARK   60  A    between atoms: _157  and  _160
REMARK   61  A    between atoms: _160  and  _161
REMARK   62  A    between atoms: _167  and  _169
REMARK   63  A    between atoms: _169  and  _170
REMARK   64  A    between atoms: _169  and  _172
REMARK   65  A    between atoms: _172  and  _173
REMARK   66  A    between atoms: _176  and  _178
REMARK   67  A    between atoms: _178  and  _179
REMARK   68  A    between atoms: _178  and  _181
REMARK   69  A    between atoms: _181  and  _182
REMARK   70  A    between atoms: _184  and  _186
REMARK   71  A    between atoms: _186  and  _187
REMARK   72  A    between atoms: _186  and  _189
REMARK   73  A    between atoms: _189  and  _190
REMARK   74  A    between atoms: _195  and  _196
REMARK   75  A    between atoms: _198  and  _200
REMARK   76  A    between atoms: _200  and  _201
REMARK   77  A    between atoms: _200  and  _203
REMARK   78  A    between atoms: _203  and  _204
REMARK   79  A    between atoms: _204  and  _205
REMARK   80  A    between atoms: _207  and  _209
REMARK   81  A    between atoms: _209  and  _210
REMARK   82  A    between atoms: _209  and  _212
REMARK   83  A    between atoms: _212  and  _213
REMARK   84  A    between atoms: _213  and  _214
REMARK   85  A    between atoms: _217  and  _219
REMARK   86  A    between atoms: _219  and  _220
REMARK   87  A    between atoms: _219  and  _222
REMARK   88  A    between atoms: _222  and  _223
REMARK   89  A    between atoms: _228  and  _229
REMARK   90  A    between atoms: _231  and  _233
REMARK   91  A    between atoms: _233  and  _234
REMARK   92  A    between atoms: _233  and  _236
REMARK   93  A    between atoms: _236  and  _237
REMARK   94  A    between atoms: _247  and  _249
REMARK   95  A    between atoms: _249  and  _250
REMARK   96  A    between atoms: _249  and  _252
REMARK   97  A    between atoms: _252  and  _253
REMARK   98  A    between atoms: _258  and  _260
REMARK   99  A    between atoms: _260  and  _261
REMARK  100  A    between atoms: _260  and  _263
REMARK  101  A    between atoms: _263  and  _264
REMARK  102  A    between atoms: _269  and  _270
REMARK  103  A    between atoms: _272  and  _274
REMARK  104  A    between atoms: _274  and  _275
REMARK  105  A    between atoms: _274  and  _277
REMARK  106  A    between atoms: _277  and  _278
REMARK  107  A    between atoms: _283  and  _284
REMARK  108  A    between atoms: _286  and  _288
REMARK  109  A    between atoms: _288  and  _289
REMARK  110  A    between atoms: _288  and  _291
REMARK  111  A    between atoms: _291  and  _292
REMARK  112  A    between atoms: _295  and  _297
REMARK  113  A    between atoms: _297  and  _298
REMARK  114  A    between atoms: _297  and  _300
REMARK  115  A    between atoms: _300  and  _301
REMARK  116  A    between atoms: _306  and  _308
REMARK  117  A    between atoms: _308  and  _309
REMARK  118  A    between atoms: _308  and  _311
REMARK  119  A    between atoms: _311  and  _312
REMARK  120  A    between atoms: _312  and  _313
REMARK  121  A    between atoms: _318  and  _320
REMARK  122  A    between atoms: _320  and  _321
REMARK  123  A    between atoms: _320  and  _323
REMARK  124  A    between atoms: _323  and  _324
REMARK  125  A    between atoms: _334  and  _336
REMARK  126  A    between atoms: _336  and  _337
REMARK  127  A    between atoms: _336  and  _339
REMARK  128  A    between atoms: _339  and  _340
REMARK  129  A    between atoms: _342  and  _344
REMARK  130  A    between atoms: _344  and  _345
REMARK  131  A    between atoms: _344  and  _347
REMARK  132  A    between atoms: _347  and  _348
REMARK  133  A    between atoms: _354  and  _356
REMARK  134  A    between atoms: _356  and  _357
REMARK  135  A    between atoms: _356  and  _359
REMARK  136  A    between atoms: _359  and  _360
REMARK  137  A    between atoms: _366  and  _368
REMARK  138  A    between atoms: _368  and  _369
REMARK  139  A    between atoms: _368  and  _371
REMARK  140  A    between atoms: _371  and  _372
REMARK  141  A    between atoms: _375  and  _377
REMARK  142  A    between atoms: _377  and  _378
REMARK  143  A    between atoms: _377  and  _380
REMARK  144  A    between atoms: _380  and  _381
REMARK                            x       y       z     vdW  Elec       q    Type
REMARK                         _______ _______ _______ _____ _____    ______ ____
ROOT
ATOM      1  CA  TYR A   3       2.617   0.738  23.124  0.00  0.00    +0.153 C 
ENDROOT
BRANCH   1   2
ATOM      2  C   TYR A   3       3.533  -0.182  22.351  0.00  0.00    +0.241 C 
ATOM      3  N   TRP A   4       4.780   0.226  22.197  0.00  0.00    -0.298 N 
ATOM      4  H   TRP A   4       5.079   1.134  22.607  0.00  0.00    +0.150 HD
ATOM      5  O   TYR A   3       3.098  -1.208  21.840  0.00  0.00    -0.273 OA
BRANCH   3   6
ATOM      6  CA  TRP A   4       5.738  -0.580  21.462  0.00  0.00    +0.141 C 
BRANCH   6   7
ATOM      7  C   TRP A   4       6.968  -0.751  22.304  0.00  0.00    +0.227 C 
ATOM      8  O   TRP A   4       7.298   0.100  23.154  0.00  0.00    -0.286 OA
ENDBRANCH   6   7
BRANCH   6   9
ATOM      9  CB  TRP A   4       6.131   0.095  20.130  0.00  0.00    +0.056 C 
BRANCH   9  10
ATOM     10  CG  TRP A   4       5.089   0.004  19.072  0.00  0.00    -0.002 A 
ATOM     11  CD1 TRP A   4       3.808   0.501  19.121  0.00  0.00    +0.068 A 
ATOM     12  NE1 TRP A   4       3.137   0.206  17.964  0.00  0.00    -0.352 N 
ATOM     13  HE1 TRP A   4       2.155   0.470  17.747  0.00  0.00    +0.166 HD
ATOM     14  CE2 TRP A   4       3.982  -0.498  17.137  0.00  0.00    +0.056 A 
ATOM     15  CZ2 TRP A   4       3.767  -1.006  15.828  0.00  0.00    +0.017 A 
ATOM     16  CH2 TRP A   4       4.817  -1.663  15.213  0.00  0.00    +0.001 A 
ATOM     17  CZ3 TRP A   4       6.066  -1.832  15.871  0.00  0.00    +0.000 A 
ATOM     18  CE3 TRP A   4       6.273  -1.325  17.174  0.00  0.00    +0.001 A 
ATOM     19  CD2 TRP A   4       5.226  -0.631  17.806  0.00  0.00    +0.013 A 
ENDBRANCH   9  10
ENDBRANCH   6   9
ENDBRANCH   3   6
ENDBRANCH   1   2
BRANCH   1  21
ATOM     20  C   GLU A   2       0.845   1.834  21.886  0.00  0.00    +0.241 C 
ATOM     21  N   TYR A   3       1.348   0.727  22.406  0.00  0.00    -0.297 N 
ATOM     22  H   TYR A   3       0.829  -0.168  22.301  0.00  0.00    +0.150 HD
ATOM     23  O   GLU A   2       1.435   2.889  21.933  0.00  0.00    -0.273 OA
BRANCH  20  24
ATOM     24  CA  GLU A   2      -0.522   1.740  21.232  0.00  0.00    +0.149 C 
BRANCH  24  27
ATOM     25  C   MET A   1      -2.563   2.979  21.691  0.00  0.00    +0.238 C 
ATOM     26  O   MET A   1      -3.270   1.969  21.703  0.00  0.00    -0.274 OA
ATOM     27  N   GLU A   2      -1.251   2.972  21.449  0.00  0.00    -0.297 N 
ATOM     28  H   GLU A   2      -0.738   3.876  21.415  0.00  0.00    +0.150 HD
BRANCH  25  29
ATOM     29  CA  MET A   1      -3.169   4.346  21.904  0.00  0.00    +0.146 C 
BRANCH  29  30
ATOM     30  N   MET A   1      -4.557   4.457  21.473  0.00  0.00    -0.238 NA
ATOM     31  H   MET A   1      -5.266   3.734  21.710  0.00  0.00    +0.142 HD
ENDBRANCH  29  30
BRANCH  29  32
ATOM     32  CB  MET A   1      -2.972   4.867  23.338  0.00  0.00    +0.038 C 
BRANCH  32  33
ATOM     33  CG  MET A   1      -1.532   5.373  23.652  0.00  0.00    +0.060 C 
BRANCH  33  34
ATOM     34  SD  MET A   1      -0.395   5.788  22.281  0.00  0.00    -0.139 S 
ATOM     35  CE  MET A   1       1.193   5.760  23.157  0.00  0.00    +0.069 C 
ENDBRANCH  33  34
ENDBRANCH  32  33
ENDBRANCH  29  32
ENDBRANCH  25  29
ENDBRANCH  24  27
BRANCH  24  36
ATOM     36  CB  GLU A   2      -0.401   1.435  19.742  0.00  0.00    +0.041 C 
BRANCH  36  37
ATOM     37  CG  GLU A   2      -0.596  -0.045  19.437  0.00  0.00    +0.116 C 
BRANCH  37  38
ATOM     38  CD  GLU A   2      -0.214  -0.408  18.020  0.00  0.00    +0.365 C 
ATOM     39  OE2 GLU A   2      -0.626  -1.476  17.528  0.00  0.00    -0.246 OA
ATOM     40  OE1 GLU A   2       0.504   0.362  17.377  0.00  0.00    -0.246 OA
ENDBRANCH  37  38
ENDBRANCH  36  37
ENDBRANCH  24  36
ENDBRANCH  20  24
ENDBRANCH   1  21
BRANCH   1  41
ATOM     41  CB  TYR A   3       2.421   0.341  24.624  0.00  0.00    +0.055 C 
BRANCH  41  42
ATOM     42  CG  TYR A   3       1.351   1.201  25.266  0.00  0.00    -0.020 A 
ATOM     43  CD2 TYR A   3       1.681   2.384  25.955  0.00  0.00    -0.001 A 
ATOM     44  CE2 TYR A   3       0.667   3.203  26.486  0.00  0.00    +0.036 A 
ATOM     45  CZ  TYR A   3      -0.682   2.832  26.281  0.00  0.00    +0.134 A 
ATOM     46  CE1 TYR A   3      -1.009   1.697  25.588  0.00  0.00    +0.036 A 
ATOM     47  CD1 TYR A   3      -0.009   0.897  25.075  0.00  0.00    -0.001 A 
BRANCH  45  48
ATOM     48  OH  TYR A   3      -1.715   3.579  26.771  0.00  0.00    -0.506 OA
ATOM     49  HH  TYR A   3      -2.574   3.155  26.523  0.00  0.00    +0.292 HD
ENDBRANCH  45  48
ENDBRANCH  41  42
ENDBRANCH   1  41
TORSDOF 19
REMARK  Name = ../refined-set-2016/4lar/4lar_pocket.pdb
REMARK  144 active torsions:
REMARK  status: ('A' for Active; 'I' for Inactive)
REMARK    1  A    between atoms: _1  and  _3
REMARK    2  A    between atoms: _3  and  _4
REMARK    3  A    between atoms: _6  and  _8
REMARK    4  A    between atoms: _8  and  _9
REMARK    5  A    between atoms: _8  and  _11
REMARK    6  A    between atoms: _11  and  _12
REMARK    7  A    between atoms: _17  and  _18
REMARK    8  A    between atoms: _20  and  _22
REMARK    9  A    between atoms: _22  and  _23
REMARK   10  A    between atoms: _22  and  _25
REMARK   11  A    between atoms: _25  and  _26
REMARK   12  A    between atoms: _36  and  _38
REMARK   13  A    between atoms: _38  and  _39
REMARK   14  A    between atoms: _38  and  _41
REMARK   15  A    between atoms: _41  and  _42
REMARK   16  A    between atoms: _44  and  _46
REMARK   17  A    between atoms: _46  and  _47
REMARK   18  A    between atoms: _46  and  _49
REMARK   19  A    between atoms: _49  and  _50
REMARK   20  A    between atoms: _60  and  _62
REMARK   21  A    between atoms: _62  and  _63
REMARK   22  A    between atoms: _62  and  _65
REMARK   23  A    between atoms: _65  and  _66
REMARK   24  A    between atoms: _69  and  _71
REMARK   25  A    between atoms: _71  and  _72
REMARK   26  A    between atoms: _71  and  _74
REMARK   27  A    between atoms: _74  and  _75
REMARK   28  A    between atoms: _80  and  _81
REMARK   29  A    between atoms: _83  and  _85
REMARK   30  A    between atoms: _85  and  _86
REMARK   31  A    between atoms: _88  and  _90
REMARK   32  A    between atoms: _90  and  _91
REMARK   33  A    between atoms: _90  and  _93
REMARK   34  A    between atoms: _93  and  _94
REMARK   35  A    between atoms: _99  and  _100
REMARK   36  A    between atoms: _102  and  _104
REMARK   37  A    between atoms: _104  and  _105
REMARK   38  A    between atoms: _104  and  _107
REMARK   39  A    between atoms: _107  and  _108
REMARK   40  A    between atoms: _111  and  _113
REMARK   41  A    between atoms: _113  and  _114
REMARK   42  A    between atoms: _113  and  _116
REMARK   43  A    between atoms: _116  and  _117
REMARK   44  A    between atoms: _119  and  _121
REMARK   45  A    between atoms: _121  and  _122
REMARK   46  A    between atoms: _121  and  _124
REMARK   47  A    between atoms: _124  and  _125
REMARK   48  A    between atoms: _130  and  _131
REMARK   49  A    between atoms: _133  and  _135
REMARK   50  A    between atoms: _135  and  _136
REMARK   51  A    between atoms: _135  and  _138
REMARK   52  A    between atoms: _138  and  _139
REMARK   53  A    between atoms: _141  and  _143
REMARK   54  A    between atoms: _143  and  _144
REMARK   55  A    between atoms: _143  and  _146
REMARK   56  A    between atoms: _146  and  _147
REMARK   57  A    between atoms: _152  and  _153
REMARK   58  A    between atoms: _155  and  _157
REMARK   59  A    between atoms: _157  and  _158
REMARK   60  A    between atoms: _157  and  _160
REMARK   61  A    between atoms: _160  and  _161
REMARK   62  A    between atoms: _167  and  _169
REMARK   63  A    between atoms: _169  and  _170
REMARK   64  A    between atoms: _169  and  _172
REMARK   65  A    between atoms: _172  and  _173
REMARK   66  A    between atoms: _176  and  _178
REMARK   67  A    between atoms: _178  and  _179
REMARK   68  A    between atoms: _178  and  _181
REMARK   69  A    between atoms: _181  and  _182
REMARK   70  A    between atoms: _184  and  _186
REMARK   71  A    between atoms: _186  and  _187
REMARK   72  A    between atoms: _186  and  _189
REMARK   73  A    between atoms: _189  and  _190
REMARK   74  A    between atoms: _195  and  _196
REMARK   75  A    between atoms: _198  and  _200
REMARK   76  A    between atoms: _200  and  _201
REMARK   77  A    between atoms: _200  and  _203
REMARK   78  A    between atoms: _203  and  _204
REMARK   79  A    between atoms: _204  and  _205
REMARK   80  A    between atoms: _207  and  _209
REMARK   81  A    between atoms: _209  and  _210
REMARK   82  A    between atoms: _209  and  _212
REMARK   83  A    between atoms: _212  and  _213
REMARK   84  A    between atoms: _213  and  _214
REMARK   85  A    between atoms: _217  and  _219
REMARK   86  A    between atoms: _219  and  _220
REMARK   87  A    between atoms: _219  and  _222
REMARK   88  A    between atoms: _222  and  _223
REMARK   89  A    between atoms: _228  and  _229
REMARK   90  A    between atoms: _231  and  _233
REMARK   91  A    between atoms: _233  and  _234
REMARK   92  A    between atoms: _233  and  _236
REMARK   93  A    between atoms: _236  and  _237
REMARK   94  A    between atoms: _247  and  _249
REMARK   95  A    between atoms: _249  and  _250
REMARK   96  A    between atoms: _249  and  _252
REMARK   97  A    between atoms: _252  and  _253
REMARK   98  A    between atoms: _258  and  _260
REMARK   99  A    between atoms: _260  and  _261
REMARK  100  A    between atoms: _260  and  _263
REMARK  101  A    between atoms: _263  and  _264
REMARK  102  A    between atoms: _269  and  _270
REMARK  103  A    between atoms: _272  and  _274
REMARK  104  A    between atoms: _274  and  _275
REMARK  105  A    between atoms: _274  and  _277
REMARK  106  A    between atoms: _277  and  _278
REMARK  107  A    between atoms: _283  and  _284
REMARK  108  A    between atoms: _286  and  _288
REMARK  109  A    between atoms: _288  and  _289
REMARK  110  A    between atoms: _288  and  _291
REMARK  111  A    between atoms: _291  and  _292
REMARK  112  A    between atoms: _295  and  _297
REMARK  113  A    between atoms: _297  and  _298
REMARK  114  A    between atoms: _297  and  _300
REMARK  115  A    between atoms: _300  and  _301
REMARK  116  A    between atoms: _306  and  _308
REMARK  117  A    between atoms: _308  and  _309
REMARK  118  A    between atoms: _308  and  _311
REMARK  119  A    between atoms: _311  and  _312
REMARK  120  A    between atoms: _312  and  _313
REMARK  121  A    between atoms: _318  and  _320
REMARK  122  A    between atoms: _320  and  _321
REMARK  123  A    between atoms: _320  and  _323
REMARK  124  A    between atoms: _323  and  _324
REMARK  125  A    between atoms: _334  and  _336
REMARK  126  A    between atoms: _336  and  _337
REMARK  127  A    between atoms: _336  and  _339
REMARK  128  A    between atoms: _339  and  _340
REMARK  129  A    between atoms: _342  and  _344
REMARK  130  A    between atoms: _344  and  _345
REMARK  131  A    between atoms: _344  and  _347
REMARK  132  A    between atoms: _347  and  _348
REMARK  133  A    between atoms: _354  and  _356
REMARK  134  A    between atoms: _356  and  _357
REMARK  135  A    between atoms: _356  and  _359
REMARK  136  A    between atoms: _359  and  _360
REMARK  137  A    between atoms: _366  and  _368
REMARK  138  A    between atoms: _368  and  _369
REMARK  139  A    between atoms: _368  and  _371
REMARK  140  A    between atoms: _371  and  _372
REMARK  141  A    between atoms: _375  and  _377
REMARK  142  A    between atoms: _377  and  _378
REMARK  143  A    between atoms: _377  and  _380
REMARK  144  A    between atoms: _380  and  _381
REMARK                            x       y       z     vdW  Elec       q    Type
REMARK                         _______ _______ _______ _____ _____    ______ ____
ROOT
ATOM      1  CB  HIS A   1      -9.230  -0.995  10.920  0.00  0.00    +0.072 C 
ENDROOT
BRANCH   1   2
ATOM      2  CG  HIS A   1     -10.459  -1.401  11.671  0.00  0.00    +0.082 A 
ATOM      3  CD2 HIS A   1     -10.711  -1.479  12.996  0.00  0.00    +0.115 A 
ATOM      4  NE2 HIS A   1     -12.014  -1.893  13.141  0.00  0.00    -0.221 NA
ATOM      5  CE1 HIS A   1     -12.541  -2.069  11.940  0.00  0.00    +0.199 A 
ATOM      6  ND1 HIS A   1     -11.621  -1.781  11.038  0.00  0.00    -0.227 NA
ENDBRANCH   1   2
BRANCH   1   7
ATOM      7  CA  HIS A   1      -8.866   0.523  11.030  0.00  0.00    +0.139 C 
BRANCH   7   8
ATOM      8  N   HIS A   1     -10.005   1.411  10.754  0.00  0.00    -0.239 NA
ATOM      9  H   HIS A   1     -10.479   1.355   9.830  0.00  0.00    +0.142 HD
ENDBRANCH   7   8
BRANCH   7  10
ATOM     10  C   HIS A   1      -7.684   0.801  10.101  0.00  0.00    +0.224 C 
ATOM     11  O   HIS A   1      -6.878  -0.092   9.871  0.00  0.00    -0.287 OA
ENDBRANCH   7  10
ENDBRANCH   1   7
TORSDOF 4
REMARK  Name = ../refined-set-2016/4lar/4lar_pocket.pdb
REMARK  144 active torsions:
REMARK  status: ('A' for Active; 'I' for Inactive)
REMARK    1  A    between atoms: _1  and  _3
REMARK    2  A    between atoms: _3  and  _4
REMARK    3  A    between atoms: _6  and  _8
REMARK    4  A    between atoms: _8  and  _9
REMARK    5  A    between atoms: _8  and  _11
REMARK    6  A    between atoms: _11  and  _12
REMARK    7  A    between atoms: _17  and  _18
REMARK    8  A    between atoms: _20  and  _22
REMARK    9  A    between atoms: _22  and  _23
REMARK   10  A    between atoms: _22  and  _25
REMARK   11  A    between atoms: _25  and  _26
REMARK   12  A    between atoms: _36  and  _38
REMARK   13  A    between atoms: _38  and  _39
REMARK   14  A    between atoms: _38  and  _41
REMARK   15  A    between atoms: _41  and  _42
REMARK   16  A    between atoms: _44  and  _46
REMARK   17  A    between atoms: _46  and  _47
REMARK   18  A    between atoms: _46  and  _49
REMARK   19  A    between atoms: _49  and  _50
REMARK   20  A    between atoms: _60  and  _62
REMARK   21  A    between atoms: _62  and  _63
REMARK   22  A    between atoms: _62  and  _65
REMARK   23  A    between atoms: _65  and  _66
REMARK   24  A    between atoms: _69  and  _71
REMARK   25  A    between atoms: _71  and  _72
REMARK   26  A    between atoms: _71  and  _74
REMARK   27  A    between atoms: _74  and  _75
REMARK   28  A    between atoms: _80  and  _81
REMARK   29  A    between atoms: _83  and  _85
REMARK   30  A    between atoms: _85  and  _86
REMARK   31  A    between atoms: _88  and  _90
REMARK   32  A    between atoms: _90  and  _91
REMARK   33  A    between atoms: _90  and  _93
REMARK   34  A    between atoms: _93  and  _94
REMARK   35  A    between atoms: _99  and  _100
REMARK   36  A    between atoms: _102  and  _104
REMARK   37  A    between atoms: _104  and  _105
REMARK   38  A    between atoms: _104  and  _107
REMARK   39  A    between atoms: _107  and  _108
REMARK   40  A    between atoms: _111  and  _113
REMARK   41  A    between atoms: _113  and  _114
REMARK   42  A    between atoms: _113  and  _116
REMARK   43  A    between atoms: _116  and  _117
REMARK   44  A    between atoms: _119  and  _121
REMARK   45  A    between atoms: _121  and  _122
REMARK   46  A    between atoms: _121  and  _124
REMARK   47  A    between atoms: _124  and  _125
REMARK   48  A    between atoms: _130  and  _131
REMARK   49  A    between atoms: _133  and  _135
REMARK   50  A    between atoms: _135  and  _136
REMARK   51  A    between atoms: _135  and  _138
REMARK   52  A    between atoms: _138  and  _139
REMARK   53  A    between atoms: _141  and  _143
REMARK   54  A    between atoms: _143  and  _144
REMARK   55  A    between atoms: _143  and  _146
REMARK   56  A    between atoms: _146  and  _147
REMARK   57  A    between atoms: _152  and  _153
REMARK   58  A    between atoms: _155  and  _157
REMARK   59  A    between atoms: _157  and  _158
REMARK   60  A    between atoms: _157  and  _160
REMARK   61  A    between atoms: _160  and  _161
REMARK   62  A    between atoms: _167  and  _169
REMARK   63  A    between atoms: _169  and  _170
REMARK   64  A    between atoms: _169  and  _172
REMARK   65  A    between atoms: _172  and  _173
REMARK   66  A    between atoms: _176  and  _178
REMARK   67  A    between atoms: _178  and  _179
REMARK   68  A    between atoms: _178  and  _181
REMARK   69  A    between atoms: _181  and  _182
REMARK   70  A    between atoms: _184  and  _186
REMARK   71  A    between atoms: _186  and  _187
REMARK   72  A    between atoms: _186  and  _189
REMARK   73  A    between atoms: _189  and  _190
REMARK   74  A    between atoms: _195  and  _196
REMARK   75  A    between atoms: _198  and  _200
REMARK   76  A    between atoms: _200  and  _201
REMARK   77  A    between atoms: _200  and  _203
REMARK   78  A    between atoms: _203  and  _204
REMARK   79  A    between atoms: _204  and  _205
REMARK   80  A    between atoms: _207  and  _209
REMARK   81  A    between atoms: _209  and  _210
REMARK   82  A    between atoms: _209  and  _212
REMARK   83  A    between atoms: _212  and  _213
REMARK   84  A    between atoms: _213  and  _214
REMARK   85  A    between atoms: _217  and  _219
REMARK   86  A    between atoms: _219  and  _220
REMARK   87  A    between atoms: _219  and  _222
REMARK   88  A    between atoms: _222  and  _223
REMARK   89  A    between atoms: _228  and  _229
REMARK   90  A    between atoms: _231  and  _233
REMARK   91  A    between atoms: _233  and  _234
REMARK   92  A    between atoms: _233  and  _236
REMARK   93  A    between atoms: _236  and  _237
REMARK   94  A    between atoms: _247  and  _249
REMARK   95  A    between atoms: _249  and  _250
REMARK   96  A    between atoms: _249  and  _252
REMARK   97  A    between atoms: _252  and  _253
REMARK   98  A    between atoms: _258  and  _260
REMARK   99  A    between atoms: _260  and  _261
REMARK  100  A    between atoms: _260  and  _263
REMARK  101  A    between atoms: _263  and  _264
REMARK  102  A    between atoms: _269  and  _270
REMARK  103  A    between atoms: _272  and  _274
REMARK  104  A    between atoms: _274  and  _275
REMARK  105  A    between atoms: _274  and  _277
REMARK  106  A    between atoms: _277  and  _278
REMARK  107  A    between atoms: _283  and  _284
REMARK  108  A    between atoms: _286  and  _288
REMARK  109  A    between atoms: _288  and  _289
REMARK  110  A    between atoms: _288  and  _291
REMARK  111  A    between atoms: _291  and  _292
REMARK  112  A    between atoms: _295  and  _297
REMARK  113  A    between atoms: _297  and  _298
REMARK  114  A    between atoms: _297  and  _300
REMARK  115  A    between atoms: _300  and  _301
REMARK  116  A    between atoms: _306  and  _308
REMARK  117  A    between atoms: _308  and  _309
REMARK  118  A    between atoms: _308  and  _311
REMARK  119  A    between atoms: _311  and  _312
REMARK  120  A    between atoms: _312  and  _313
REMARK  121  A    between atoms: _318  and  _320
REMARK  122  A    between atoms: _320  and  _321
REMARK  123  A    between atoms: _320  and  _323
REMARK  124  A    between atoms: _323  and  _324
REMARK  125  A    between atoms: _334  and  _336
REMARK  126  A    between atoms: _336  and  _337
REMARK  127  A    between atoms: _336  and  _339
REMARK  128  A    between atoms: _339  and  _340
REMARK  129  A    between atoms: _342  and  _344
REMARK  130  A    between atoms: _344  and  _345
REMARK  131  A    between atoms: _344  and  _347
REMARK  132  A    between atoms: _347  and  _348
REMARK  133  A    between atoms: _354  and  _356
REMARK  134  A    between atoms: _356  and  _357
REMARK  135  A    between atoms: _356  and  _359
REMARK  136  A    between atoms: _359  and  _360
REMARK  137  A    between atoms: _366  and  _368
REMARK  138  A    between atoms: _368  and  _369
REMARK  139  A    between atoms: _368  and  _371
REMARK  140  A    between atoms: _371  and  _372
REMARK  141  A    between atoms: _375  and  _377
REMARK  142  A    between atoms: _377  and  _378
REMARK  143  A    between atoms: _377  and  _380
REMARK  144  A    between atoms: _380  and  _381
REMARK                            x       y       z     vdW  Elec       q    Type
REMARK                         _______ _______ _______ _____ _____    ______ ____
ROOT
ATOM      1  CG  TYR A   1      -4.183   2.751  13.117  0.00  0.00    -0.020 A 
ATOM      2  CD2 TYR A   1      -3.704   2.519  14.403  0.00  0.00    -0.001 A 
ATOM      3  CE2 TYR A   1      -4.565   2.305  15.476  0.00  0.00    +0.036 A 
ATOM      4  CZ  TYR A   1      -5.936   2.296  15.251  0.00  0.00    +0.134 A 
ATOM      5  CE1 TYR A   1      -6.453   2.494  13.966  0.00  0.00    +0.036 A 
ATOM      6  CD1 TYR A   1      -5.557   2.710  12.901  0.00  0.00    -0.001 A 
ENDROOT
BRANCH   4   7
ATOM      7  OH  TYR A   1      -6.754   2.096  16.329  0.00  0.00    -0.506 OA
ATOM      8  HH  TYR A   1      -6.603   2.814  16.994  0.00  0.00    +0.292 HD
ENDBRANCH   4   7
BRANCH   1   9
ATOM      9  CB  TYR A   1      -3.223   2.927  11.998  0.00  0.00    +0.051 C 
BRANCH   9  10
ATOM     10  CA  TYR A   1      -3.592   3.917  10.913  0.00  0.00    +0.137 C 
BRANCH  10  11
ATOM     11  N   TYR A   1      -4.415   3.233   9.924  0.00  0.00    -0.239 NA
ATOM     12  H   TYR A   1      -3.962   2.494   9.349  0.00  0.00    +0.142 HD
ENDBRANCH  10  11
BRANCH  10  13
ATOM     13  C   TYR A   1      -2.273   4.357  10.325  0.00  0.00    +0.224 C 
ATOM     14  O   TYR A   1      -1.805   3.721   9.394  0.00  0.00    -0.287 OA
ENDBRANCH  10  13
ENDBRANCH   9  10
ENDBRANCH   1   9
TORSDOF 5
REMARK  Name = ../refined-set-2016/4lar/4lar_pocket.pdb
REMARK  144 active torsions:
REMARK  status: ('A' for Active; 'I' for Inactive)
REMARK    1  A    between atoms: _1  and  _3
REMARK    2  A    between atoms: _3  and  _4
REMARK    3  A    between atoms: _6  and  _8
REMARK    4  A    between atoms: _8  and  _9
REMARK    5  A    between atoms: _8  and  _11
REMARK    6  A    between atoms: _11  and  _12
REMARK    7  A    between atoms: _17  and  _18
REMARK    8  A    between atoms: _20  and  _22
REMARK    9  A    between atoms: _22  and  _23
REMARK   10  A    between atoms: _22  and  _25
REMARK   11  A    between atoms: _25  and  _26
REMARK   12  A    between atoms: _36  and  _38
REMARK   13  A    between atoms: _38  and  _39
REMARK   14  A    between atoms: _38  and  _41
REMARK   15  A    between atoms: _41  and  _42
REMARK   16  A    between atoms: _44  and  _46
REMARK   17  A    between atoms: _46  and  _47
REMARK   18  A    between atoms: _46  and  _49
REMARK   19  A    between atoms: _49  and  _50
REMARK   20  A    between atoms: _60  and  _62
REMARK   21  A    between atoms: _62  and  _63
REMARK   22  A    between atoms: _62  and  _65
REMARK   23  A    between atoms: _65  and  _66
REMARK   24  A    between atoms: _69  and  _71
REMARK   25  A    between atoms: _71  and  _72
REMARK   26  A    between atoms: _71  and  _74
REMARK   27  A    between atoms: _74  and  _75
REMARK   28  A    between atoms: _80  and  _81
REMARK   29  A    between atoms: _83  and  _85
REMARK   30  A    between atoms: _85  and  _86
REMARK   31  A    between atoms: _88  and  _90
REMARK   32  A    between atoms: _90  and  _91
REMARK   33  A    between atoms: _90  and  _93
REMARK   34  A    between atoms: _93  and  _94
REMARK   35  A    between atoms: _99  and  _100
REMARK   36  A    between atoms: _102  and  _104
REMARK   37  A    between atoms: _104  and  _105
REMARK   38  A    between atoms: _104  and  _107
REMARK   39  A    between atoms: _107  and  _108
REMARK   40  A    between atoms: _111  and  _113
REMARK   41  A    between atoms: _113  and  _114
REMARK   42  A    between atoms: _113  and  _116
REMARK   43  A    between atoms: _116  and  _117
REMARK   44  A    between atoms: _119  and  _121
REMARK   45  A    between atoms: _121  and  _122
REMARK   46  A    between atoms: _121  and  _124
REMARK   47  A    between atoms: _124  and  _125
REMARK   48  A    between atoms: _130  and  _131
REMARK   49  A    between atoms: _133  and  _135
REMARK   50  A    between atoms: _135  and  _136
REMARK   51  A    between atoms: _135  and  _138
REMARK   52  A    between atoms: _138  and  _139
REMARK   53  A    between atoms: _141  and  _143
REMARK   54  A    between atoms: _143  and  _144
REMARK   55  A    between atoms: _143  and  _146
REMARK   56  A    between atoms: _146  and  _147
REMARK   57  A    between atoms: _152  and  _153
REMARK   58  A    between atoms: _155  and  _157
REMARK   59  A    between atoms: _157  and  _158
REMARK   60  A    between atoms: _157  and  _160
REMARK   61  A    between atoms: _160  and  _161
REMARK   62  A    between atoms: _167  and  _169
REMARK   63  A    between atoms: _169  and  _170
REMARK   64  A    between atoms: _169  and  _172
REMARK   65  A    between atoms: _172  and  _173
REMARK   66  A    between atoms: _176  and  _178
REMARK   67  A    between atoms: _178  and  _179
REMARK   68  A    between atoms: _178  and  _181
REMARK   69  A    between atoms: _181  and  _182
REMARK   70  A    between atoms: _184  and  _186
REMARK   71  A    between atoms: _186  and  _187
REMARK   72  A    between atoms: _186  and  _189
REMARK   73  A    between atoms: _189  and  _190
REMARK   74  A    between atoms: _195  and  _196
REMARK   75  A    between atoms: _198  and  _200
REMARK   76  A    between atoms: _200  and  _201
REMARK   77  A    between atoms: _200  and  _203
REMARK   78  A    between atoms: _203  and  _204
REMARK   79  A    between atoms: _204  and  _205
REMARK   80  A    between atoms: _207  and  _209
REMARK   81  A    between atoms: _209  and  _210
REMARK   82  A    between atoms: _209  and  _212
REMARK   83  A    between atoms: _212  and  _213
REMARK   84  A    between atoms: _213  and  _214
REMARK   85  A    between atoms: _217  and  _219
REMARK   86  A    between atoms: _219  and  _220
REMARK   87  A    between atoms: _219  and  _222
REMARK   88  A    between atoms: _222  and  _223
REMARK   89  A    between atoms: _228  and  _229
REMARK   90  A    between atoms: _231  and  _233
REMARK   91  A    between atoms: _233  and  _234
REMARK   92  A    between atoms: _233  and  _236
REMARK   93  A    between atoms: _236  and  _237
REMARK   94  A    between atoms: _247  and  _249
REMARK   95  A    between atoms: _249  and  _250
REMARK   96  A    between atoms: _249  and  _252
REMARK   97  A    between atoms: _252  and  _253
REMARK   98  A    between atoms: _258  and  _260
REMARK   99  A    between atoms: _260  and  _261
REMARK  100  A    between atoms: _260  and  _263
REMARK  101  A    between atoms: _263  and  _264
REMARK  102  A    between atoms: _269  and  _270
REMARK  103  A    between atoms: _272  and  _274
REMARK  104  A    between atoms: _274  and  _275
REMARK  105  A    between atoms: _274  and  _277
REMARK  106  A    between atoms: _277  and  _278
REMARK  107  A    between atoms: _283  and  _284
REMARK  108  A    between atoms: _286  and  _288
REMARK  109  A    between atoms: _288  and  _289
REMARK  110  A    between atoms: _288  and  _291
REMARK  111  A    between atoms: _291  and  _292
REMARK  112  A    between atoms: _295  and  _297
REMARK  113  A    between atoms: _297  and  _298
REMARK  114  A    between atoms: _297  and  _300
REMARK  115  A    between atoms: _300  and  _301
REMARK  116  A    between atoms: _306  and  _308
REMARK  117  A    between atoms: _308  and  _309
REMARK  118  A    between atoms: _308  and  _311
REMARK  119  A    between atoms: _311  and  _312
REMARK  120  A    between atoms: _312  and  _313
REMARK  121  A    between atoms: _318  and  _320
REMARK  122  A    between atoms: _320  and  _321
REMARK  123  A    between atoms: _320  and  _323
REMARK  124  A    between atoms: _323  and  _324
REMARK  125  A    between atoms: _334  and  _336
REMARK  126  A    between atoms: _336  and  _337
REMARK  127  A    between atoms: _336  and  _339
REMARK  128  A    between atoms: _339  and  _340
REMARK  129  A    between atoms: _342  and  _344
REMARK  130  A    between atoms: _344  and  _345
REMARK  131  A    between atoms: _344  and  _347
REMARK  132  A    between atoms: _347  and  _348
REMARK  133  A    between atoms: _354  and  _356
REMARK  134  A    between atoms: _356  and  _357
REMARK  135  A    between atoms: _356  and  _359
REMARK  136  A    between atoms: _359  and  _360
REMARK  137  A    between atoms: _366  and  _368
REMARK  138  A    between atoms: _368  and  _369
REMARK  139  A    between atoms: _368  and  _371
REMARK  140  A    between atoms: _371  and  _372
REMARK  141  A    between atoms: _375  and  _377
REMARK  142  A    between atoms: _377  and  _378
REMARK  143  A    between atoms: _377  and  _380
REMARK  144  A    between atoms: _380  and  _381
REMARK                            x       y       z     vdW  Elec       q    Type
REMARK                         _______ _______ _______ _____ _____    ______ ____
ROOT
ATOM      1  CG  TYR A   1       2.570   3.189  13.047  0.00  0.00    -0.020 A 
ATOM      2  CD2 TYR A   1       2.513   3.008  14.384  0.00  0.00    -0.001 A 
ATOM      3  CE2 TYR A   1       1.543   2.200  14.935  0.00  0.00    +0.036 A 
ATOM      4  CZ  TYR A   1       0.630   1.562  14.131  0.00  0.00    +0.134 A 
ATOM      5  CE1 TYR A   1       0.673   1.750  12.808  0.00  0.00    +0.036 A 
ATOM      6  CD1 TYR A   1       1.625   2.551  12.270  0.00  0.00    -0.001 A 
ENDROOT
BRANCH   4   7
ATOM      7  OH  TYR A   1      -0.371   0.731  14.669  0.00  0.00    -0.506 OA
ATOM      8  HH  TYR A   1       0.052  -0.014  15.166  0.00  0.00    +0.292 HD
ENDBRANCH   4   7
BRANCH   1   9
ATOM      9  CB  TYR A   1       3.600   4.103  12.423  0.00  0.00    +0.051 C 
BRANCH   9  10
ATOM     10  CA  TYR A   1       3.063   5.527  12.205  0.00  0.00    +0.137 C 
BRANCH  10  11
ATOM     11  N   TYR A   1       1.943   5.531  11.268  0.00  0.00    -0.239 NA
ATOM     12  H   TYR A   1       2.136   5.280  10.277  0.00  0.00    +0.142 HD
ENDBRANCH  10  11
BRANCH  10  13
ATOM     13  C   TYR A   1       4.166   6.363  11.675  0.00  0.00    +0.224 C 
ATOM     14  O   TYR A   1       4.409   6.409  10.485  0.00  0.00    -0.287 OA
ENDBRANCH  10  13
ENDBRANCH   9  10
ENDBRANCH   1   9
TORSDOF 5
REMARK  Name = ../refined-set-2016/4lar/4lar_pocket.pdb
REMARK  144 active torsions:
REMARK  status: ('A' for Active; 'I' for Inactive)
REMARK    1  A    between atoms: _1  and  _3
REMARK    2  A    between atoms: _3  and  _4
REMARK    3  A    between atoms: _6  and  _8
REMARK    4  A    between atoms: _8  and  _9
REMARK    5  A    between atoms: _8  and  _11
REMARK    6  A    between atoms: _11  and  _12
REMARK    7  A    between atoms: _17  and  _18
REMARK    8  A    between atoms: _20  and  _22
REMARK    9  A    between atoms: _22  and  _23
REMARK   10  A    between atoms: _22  and  _25
REMARK   11  A    between atoms: _25  and  _26
REMARK   12  A    between atoms: _36  and  _38
REMARK   13  A    between atoms: _38  and  _39
REMARK   14  A    between atoms: _38  and  _41
REMARK   15  A    between atoms: _41  and  _42
REMARK   16  A    between atoms: _44  and  _46
REMARK   17  A    between atoms: _46  and  _47
REMARK   18  A    between atoms: _46  and  _49
REMARK   19  A    between atoms: _49  and  _50
REMARK   20  A    between atoms: _60  and  _62
REMARK   21  A    between atoms: _62  and  _63
REMARK   22  A    between atoms: _62  and  _65
REMARK   23  A    between atoms: _65  and  _66
REMARK   24  A    between atoms: _69  and  _71
REMARK   25  A    between atoms: _71  and  _72
REMARK   26  A    between atoms: _71  and  _74
REMARK   27  A    between atoms: _74  and  _75
REMARK   28  A    between atoms: _80  and  _81
REMARK   29  A    between atoms: _83  and  _85
REMARK   30  A    between atoms: _85  and  _86
REMARK   31  A    between atoms: _88  and  _90
REMARK   32  A    between atoms: _90  and  _91
REMARK   33  A    between atoms: _90  and  _93
REMARK   34  A    between atoms: _93  and  _94
REMARK   35  A    between atoms: _99  and  _100
REMARK   36  A    between atoms: _102  and  _104
REMARK   37  A    between atoms: _104  and  _105
REMARK   38  A    between atoms: _104  and  _107
REMARK   39  A    between atoms: _107  and  _108
REMARK   40  A    between atoms: _111  and  _113
REMARK   41  A    between atoms: _113  and  _114
REMARK   42  A    between atoms: _113  and  _116
REMARK   43  A    between atoms: _116  and  _117
REMARK   44  A    between atoms: _119  and  _121
REMARK   45  A    between atoms: _121  and  _122
REMARK   46  A    between atoms: _121  and  _124
REMARK   47  A    between atoms: _124  and  _125
REMARK   48  A    between atoms: _130  and  _131
REMARK   49  A    between atoms: _133  and  _135
REMARK   50  A    between atoms: _135  and  _136
REMARK   51  A    between atoms: _135  and  _138
REMARK   52  A    between atoms: _138  and  _139
REMARK   53  A    between atoms: _141  and  _143
REMARK   54  A    between atoms: _143  and  _144
REMARK   55  A    between atoms: _143  and  _146
REMARK   56  A    between atoms: _146  and  _147
REMARK   57  A    between atoms: _152  and  _153
REMARK   58  A    between atoms: _155  and  _157
REMARK   59  A    between atoms: _157  and  _158
REMARK   60  A    between atoms: _157  and  _160
REMARK   61  A    between atoms: _160  and  _161
REMARK   62  A    between atoms: _167  and  _169
REMARK   63  A    between atoms: _169  and  _170
REMARK   64  A    between atoms: _169  and  _172
REMARK   65  A    between atoms: _172  and  _173
REMARK   66  A    between atoms: _176  and  _178
REMARK   67  A    between atoms: _178  and  _179
REMARK   68  A    between atoms: _178  and  _181
REMARK   69  A    between atoms: _181  and  _182
REMARK   70  A    between atoms: _184  and  _186
REMARK   71  A    between atoms: _186  and  _187
REMARK   72  A    between atoms: _186  and  _189
REMARK   73  A    between atoms: _189  and  _190
REMARK   74  A    between atoms: _195  and  _196
REMARK   75  A    between atoms: _198  and  _200
REMARK   76  A    between atoms: _200  and  _201
REMARK   77  A    between atoms: _200  and  _203
REMARK   78  A    between atoms: _203  and  _204
REMARK   79  A    between atoms: _204  and  _205
REMARK   80  A    between atoms: _207  and  _209
REMARK   81  A    between atoms: _209  and  _210
REMARK   82  A    between atoms: _209  and  _212
REMARK   83  A    between atoms: _212  and  _213
REMARK   84  A    between atoms: _213  and  _214
REMARK   85  A    between atoms: _217  and  _219
REMARK   86  A    between atoms: _219  and  _220
REMARK   87  A    between atoms: _219  and  _222
REMARK   88  A    between atoms: _222  and  _223
REMARK   89  A    between atoms: _228  and  _229
REMARK   90  A    between atoms: _231  and  _233
REMARK   91  A    between atoms: _233  and  _234
REMARK   92  A    between atoms: _233  and  _236
REMARK   93  A    between atoms: _236  and  _237
REMARK   94  A    between atoms: _247  and  _249
REMARK   95  A    between atoms: _249  and  _250
REMARK   96  A    between atoms: _249  and  _252
REMARK   97  A    between atoms: _252  and  _253
REMARK   98  A    between atoms: _258  and  _260
REMARK   99  A    between atoms: _260  and  _261
REMARK  100  A    between atoms: _260  and  _263
REMARK  101  A    between atoms: _263  and  _264
REMARK  102  A    between atoms: _269  and  _270
REMARK  103  A    between atoms: _272  and  _274
REMARK  104  A    between atoms: _274  and  _275
REMARK  105  A    between atoms: _274  and  _277
REMARK  106  A    between atoms: _277  and  _278
REMARK  107  A    between atoms: _283  and  _284
REMARK  108  A    between atoms: _286  and  _288
REMARK  109  A    between atoms: _288  and  _289
REMARK  110  A    between atoms: _288  and  _291
REMARK  111  A    between atoms: _291  and  _292
REMARK  112  A    between atoms: _295  and  _297
REMARK  113  A    between atoms: _297  and  _298
REMARK  114  A    between atoms: _297  and  _300
REMARK  115  A    between atoms: _300  and  _301
REMARK  116  A    between atoms: _306  and  _308
REMARK  117  A    between atoms: _308  and  _309
REMARK  118  A    between atoms: _308  and  _311
REMARK  119  A    between atoms: _311  and  _312
REMARK  120  A    between atoms: _312  and  _313
REMARK  121  A    between atoms: _318  and  _320
REMARK  122  A    between atoms: _320  and  _321
REMARK  123  A    between atoms: _320  and  _323
REMARK  124  A    between atoms: _323  and  _324
REMARK  125  A    between atoms: _334  and  _336
REMARK  126  A    between atoms: _336  and  _337
REMARK  127  A    between atoms: _336  and  _339
REMARK  128  A    between atoms: _339  and  _340
REMARK  129  A    between atoms: _342  and  _344
REMARK  130  A    between atoms: _344  and  _345
REMARK  131  A    between atoms: _344  and  _347
REMARK  132  A    between atoms: _347  and  _348
REMARK  133  A    between atoms: _354  and  _356
REMARK  134  A    between atoms: _356  and  _357
REMARK  135  A    between atoms: _356  and  _359
REMARK  136  A    between atoms: _359  and  _360
REMARK  137  A    between atoms: _366  and  _368
REMARK  138  A    between atoms: _368  and  _369
REMARK  139  A    between atoms: _368  and  _371
REMARK  140  A    between atoms: _371  and  _372
REMARK  141  A    between atoms: _375  and  _377
REMARK  142  A    between atoms: _377  and  _378
REMARK  143  A    between atoms: _377  and  _380
REMARK  144  A    between atoms: _380  and  _381
REMARK                            x       y       z     vdW  Elec       q    Type
REMARK                         _______ _______ _______ _____ _____    ______ ____
ROOT
ATOM      1  CA  LEU A   1       1.314   5.647  16.492  0.00  0.00    +0.133 C 
ENDROOT
BRANCH   1   2
ATOM      2  N   LEU A   1       2.595   5.509  17.190  0.00  0.00    -0.239 NA
ATOM      3  H   LEU A   1       2.629   5.269  18.201  0.00  0.00    +0.142 HD
ENDBRANCH   1   2
BRANCH   1   4
ATOM      4  C   LEU A   1       1.069   7.106  16.274  0.00  0.00    +0.224 C 
ATOM      5  O   LEU A   1       1.162   7.898  17.205  0.00  0.00    -0.287 OA
ENDBRANCH   1   4
BRANCH   1   6
ATOM      6  CB  LEU A   1       0.155   5.033  17.267  0.00  0.00    +0.025 C 
BRANCH   6   7
ATOM      7  CG  LEU A   1      -1.285   5.393  16.830  0.00  0.00    +0.002 C 
ATOM      8  CD2 LEU A   1      -2.244   4.805  17.852  0.00  0.00    +0.000 C 
ATOM      9  CD1 LEU A   1      -1.652   4.873  15.467  0.00  0.00    +0.000 C 
ENDBRANCH   6   7
ENDBRANCH   1   6
TORSDOF 4
REMARK  Name = ../refined-set-2016/4lar/4lar_pocket.pdb
REMARK  144 active torsions:
REMARK  status: ('A' for Active; 'I' for Inactive)
REMARK    1  A    between atoms: _1  and  _3
REMARK    2  A    between atoms: _3  and  _4
REMARK    3  A    between atoms: _6  and  _8
REMARK    4  A    between atoms: _8  and  _9
REMARK    5  A    between atoms: _8  and  _11
REMARK    6  A    between atoms: _11  and  _12
REMARK    7  A    between atoms: _17  and  _18
REMARK    8  A    between atoms: _20  and  _22
REMARK    9  A    between atoms: _22  and  _23
REMARK   10  A    between atoms: _22  and  _25
REMARK   11  A    between atoms: _25  and  _26
REMARK   12  A    between atoms: _36  and  _38
REMARK   13  A    between atoms: _38  and  _39
REMARK   14  A    between atoms: _38  and  _41
REMARK   15  A    between atoms: _41  and  _42
REMARK   16  A    between atoms: _44  and  _46
REMARK   17  A    between atoms: _46  and  _47
REMARK   18  A    between atoms: _46  and  _49
REMARK   19  A    between atoms: _49  and  _50
REMARK   20  A    between atoms: _60  and  _62
REMARK   21  A    between atoms: _62  and  _63
REMARK   22  A    between atoms: _62  and  _65
REMARK   23  A    between atoms: _65  and  _66
REMARK   24  A    between atoms: _69  and  _71
REMARK   25  A    between atoms: _71  and  _72
REMARK   26  A    between atoms: _71  and  _74
REMARK   27  A    between atoms: _74  and  _75
REMARK   28  A    between atoms: _80  and  _81
REMARK   29  A    between atoms: _83  and  _85
REMARK   30  A    between atoms: _85  and  _86
REMARK   31  A    between atoms: _88  and  _90
REMARK   32  A    between atoms: _90  and  _91
REMARK   33  A    between atoms: _90  and  _93
REMARK   34  A    between atoms: _93  and  _94
REMARK   35  A    between atoms: _99  and  _100
REMARK   36  A    between atoms: _102  and  _104
REMARK   37  A    between atoms: _104  and  _105
REMARK   38  A    between atoms: _104  and  _107
REMARK   39  A    between atoms: _107  and  _108
REMARK   40  A    between atoms: _111  and  _113
REMARK   41  A    between atoms: _113  and  _114
REMARK   42  A    between atoms: _113  and  _116
REMARK   43  A    between atoms: _116  and  _117
REMARK   44  A    between atoms: _119  and  _121
REMARK   45  A    between atoms: _121  and  _122
REMARK   46  A    between atoms: _121  and  _124
REMARK   47  A    between atoms: _124  and  _125
REMARK   48  A    between atoms: _130  and  _131
REMARK   49  A    between atoms: _133  and  _135
REMARK   50  A    between atoms: _135  and  _136
REMARK   51  A    between atoms: _135  and  _138
REMARK   52  A    between atoms: _138  and  _139
REMARK   53  A    between atoms: _141  and  _143
REMARK   54  A    between atoms: _143  and  _144
REMARK   55  A    between atoms: _143  and  _146
REMARK   56  A    between atoms: _146  and  _147
REMARK   57  A    between atoms: _152  and  _153
REMARK   58  A    between atoms: _155  and  _157
REMARK   59  A    between atoms: _157  and  _158
REMARK   60  A    between atoms: _157  and  _160
REMARK   61  A    between atoms: _160  and  _161
REMARK   62  A    between atoms: _167  and  _169
REMARK   63  A    between atoms: _169  and  _170
REMARK   64  A    between atoms: _169  and  _172
REMARK   65  A    between atoms: _172  and  _173
REMARK   66  A    between atoms: _176  and  _178
REMARK   67  A    between atoms: _178  and  _179
REMARK   68  A    between atoms: _178  and  _181
REMARK   69  A    between atoms: _181  and  _182
REMARK   70  A    between atoms: _184  and  _186
REMARK   71  A    between atoms: _186  and  _187
REMARK   72  A    between atoms: _186  and  _189
REMARK   73  A    between atoms: _189  and  _190
REMARK   74  A    between atoms: _195  and  _196
REMARK   75  A    between atoms: _198  and  _200
REMARK   76  A    between atoms: _200  and  _201
REMARK   77  A    between atoms: _200  and  _203
REMARK   78  A    between atoms: _203  and  _204
REMARK   79  A    between atoms: _204  and  _205
REMARK   80  A    between atoms: _207  and  _209
REMARK   81  A    between atoms: _209  and  _210
REMARK   82  A    between atoms: _209  and  _212
REMARK   83  A    between atoms: _212  and  _213
REMARK   84  A    between atoms: _213  and  _214
REMARK   85  A    between atoms: _217  and  _219
REMARK   86  A    between atoms: _219  and  _220
REMARK   87  A    between atoms: _219  and  _222
REMARK   88  A    between atoms: _222  and  _223
REMARK   89  A    between atoms: _228  and  _229
REMARK   90  A    between atoms: _231  and  _233
REMARK   91  A    between atoms: _233  and  _234
REMARK   92  A    between atoms: _233  and  _236
REMARK   93  A    between atoms: _236  and  _237
REMARK   94  A    between atoms: _247  and  _249
REMARK   95  A    between atoms: _249  and  _250
REMARK   96  A    between atoms: _249  and  _252
REMARK   97  A    between atoms: _252  and  _253
REMARK   98  A    between atoms: _258  and  _260
REMARK   99  A    between atoms: _260  and  _261
REMARK  100  A    between atoms: _260  and  _263
REMARK  101  A    between atoms: _263  and  _264
REMARK  102  A    between atoms: _269  and  _270
REMARK  103  A    between atoms: _272  and  _274
REMARK  104  A    between atoms: _274  and  _275
REMARK  105  A    between atoms: _274  and  _277
REMARK  106  A    between atoms: _277  and  _278
REMARK  107  A    between atoms: _283  and  _284
REMARK  108  A    between atoms: _286  and  _288
REMARK  109  A    between atoms: _288  and  _289
REMARK  110  A    between atoms: _288  and  _291
REMARK  111  A    between atoms: _291  and  _292
REMARK  112  A    between atoms: _295  and  _297
REMARK  113  A    between atoms: _297  and  _298
REMARK  114  A    between atoms: _297  and  _300
REMARK  115  A    between atoms: _300  and  _301
REMARK  116  A    between atoms: _306  and  _308
REMARK  117  A    between atoms: _308  and  _309
REMARK  118  A    between atoms: _308  and  _311
REMARK  119  A    between atoms: _311  and  _312
REMARK  120  A    between atoms: _312  and  _313
REMARK  121  A    between atoms: _318  and  _320
REMARK  122  A    between atoms: _320  and  _321
REMARK  123  A    between atoms: _320  and  _323
REMARK  124  A    between atoms: _323  and  _324
REMARK  125  A    between atoms: _334  and  _336
REMARK  126  A    between atoms: _336  and  _337
REMARK  127  A    between atoms: _336  and  _339
REMARK  128  A    between atoms: _339  and  _340
REMARK  129  A    between atoms: _342  and  _344
REMARK  130  A    between atoms: _344  and  _345
REMARK  131  A    between atoms: _344  and  _347
REMARK  132  A    between atoms: _347  and  _348
REMARK  133  A    between atoms: _354  and  _356
REMARK  134  A    between atoms: _356  and  _357
REMARK  135  A    between atoms: _356  and  _359
REMARK  136  A    between atoms: _359  and  _360
REMARK  137  A    between atoms: _366  and  _368
REMARK  138  A    between atoms: _368  and  _369
REMARK  139  A    between atoms: _368  and  _371
REMARK  140  A    between atoms: _371  and  _372
REMARK  141  A    between atoms: _375  and  _377
REMARK  142  A    between atoms: _377  and  _378
REMARK  143  A    between atoms: _377  and  _380
REMARK  144  A    between atoms: _380  and  _381
REMARK                            x       y       z     vdW  Elec       q    Type
REMARK                         _______ _______ _______ _____ _____    ______ ____
ROOT
ATOM      1  C   GLN A   2      -4.688  -2.862   9.011  0.00  0.00    +0.241 C 
ATOM      2  N   TRP A   3      -5.734  -2.878   9.793  0.00  0.00    -0.297 N 
ATOM      3  H   TRP A   3      -6.344  -2.037   9.831  0.00  0.00    +0.150 HD
ATOM      4  O   GLN A   2      -3.869  -3.692   9.076  0.00  0.00    -0.273 OA
ENDROOT
BRANCH   1   5
ATOM      5  CA  GLN A   2      -4.538  -1.711   8.029  0.00  0.00    +0.149 C 
BRANCH   5   8
ATOM      6  C   HIS A   1      -2.813  -0.048   8.367  0.00  0.00    +0.239 C 
ATOM      7  O   HIS A   1      -3.559   0.837   8.518  0.00  0.00    -0.274 OA
ATOM      8  N   GLN A   2      -3.201  -1.273   8.234  0.00  0.00    -0.297 N 
ATOM      9  H   GLN A   2      -2.466  -2.008   8.281  0.00  0.00    +0.150 HD
BRANCH   6  10
ATOM     10  CA  HIS A   1      -1.333   0.173   8.326  0.00  0.00    +0.151 C 
BRANCH  10  11
ATOM     11  N   HIS A   1      -1.100   1.479   7.761  0.00  0.00    -0.238 NA
ATOM     12  H   HIS A   1      -1.892   2.153   7.741  0.00  0.00    +0.142 HD
ENDBRANCH  10  11
BRANCH  10  13
ATOM     13  CB  HIS A   1      -0.661   0.082   9.717  0.00  0.00    +0.074 C 
BRANCH  13  14
ATOM     14  CG  HIS A   1      -1.093  -1.068  10.583  0.00  0.00    +0.082 A 
ATOM     15  CD2 HIS A   1      -1.756  -1.086  11.749  0.00  0.00    +0.115 A 
ATOM     16  NE2 HIS A   1      -1.867  -2.383  12.134  0.00  0.00    -0.221 NA
ATOM     17  CE1 HIS A   1      -1.267  -3.141  11.254  0.00  0.00    +0.199 A 
ATOM     18  ND1 HIS A   1      -0.795  -2.373  10.308  0.00  0.00    -0.227 NA
ENDBRANCH  13  14
ENDBRANCH  10  13
ENDBRANCH   6  10
ENDBRANCH   5   8
BRANCH   5  19
ATOM     19  CB  GLN A   2      -4.542  -2.207   6.587  0.00  0.00    +0.039 C 
BRANCH  19  20
ATOM     20  CG  GLN A   2      -5.594  -3.142   6.065  0.00  0.00    +0.087 C 
BRANCH  20  21
ATOM     21  CD  GLN A   2      -5.401  -4.581   6.352  0.00  0.00    +0.219 C 
ATOM     22  OE1 GLN A   2      -6.255  -5.163   6.863  0.00  0.00    -0.275 OA
ATOM     23  NE2 GLN A   2      -4.319  -5.141   5.991  0.00  0.00    -0.329 N 
ATOM     24 HE21 GLN A   2      -4.181  -6.159   6.154  0.00  0.00    +0.145 HD
ATOM     25 HE22 GLN A   2      -3.572  -4.582   5.533  0.00  0.00    +0.145 HD
ENDBRANCH  20  21
ENDBRANCH  19  20
ENDBRANCH   5  19
ENDBRANCH   1   5
BRANCH   2  26
ATOM     26  CA  TRP A   3      -6.073  -4.020  10.606  0.00  0.00    +0.153 C 
BRANCH  26  27
ATOM     27  C   TRP A   3      -7.582  -4.329  10.525  0.00  0.00    +0.241 C 
ATOM     28  O   TRP A   3      -8.178  -4.848  11.400  0.00  0.00    -0.273 OA
ATOM     29  N   SER A   4      -8.167  -3.948   9.418  0.00  0.00    -0.296 N 
ATOM     30  H   SER A   4      -7.596  -3.433   8.718  0.00  0.00    +0.150 HD
BRANCH  29  31
ATOM     31  CA  SER A   4      -9.564  -4.199   9.105  0.00  0.00    +0.166 C 
BRANCH  31  32
ATOM     32  CB  SER A   4      -9.736  -5.659   8.665  0.00  0.00    +0.229 C 
ATOM     33  OG  SER A   4     -10.828  -6.195   8.731  0.00  0.00    -0.286 OA
ENDBRANCH  31  32
BRANCH  31  34
ATOM     34  C   SER A   4      -9.925  -3.258   7.966  0.00  0.00    +0.165 C 
BRANCH  34  35
ATOM     35  O   SER A   4     -11.033  -3.704   7.240  0.00  0.00    -0.380 OA
ATOM     36  H   SER A   4     -10.836  -4.594   6.853  0.00  0.00    +0.211 HD
ENDBRANCH  34  35
ENDBRANCH  31  34
ENDBRANCH  29  31
ENDBRANCH  26  27
BRANCH  26  37
ATOM     37  CB  TRP A   3      -5.546  -3.867  12.030  0.00  0.00    +0.057 C 
BRANCH  37  38
ATOM     38  CG  TRP A   3      -6.104  -2.737  12.852  0.00  0.00    -0.002 A 
ATOM     39  CD2 TRP A   3      -7.080  -2.832  13.870  0.00  0.00    +0.013 A 
ATOM     40  CE3 TRP A   3      -7.832  -3.880  14.401  0.00  0.00    +0.001 A 
ATOM     41  CZ3 TRP A   3      -8.705  -3.623  15.343  0.00  0.00    +0.000 A 
ATOM     42  CH2 TRP A   3      -8.866  -2.344  15.838  0.00  0.00    +0.001 A 
ATOM     43  CZ2 TRP A   3      -8.150  -1.304  15.370  0.00  0.00    +0.017 A 
ATOM     44  CE2 TRP A   3      -7.250  -1.574  14.378  0.00  0.00    +0.056 A 
ATOM     45  NE1 TRP A   3      -6.411  -0.761  13.694  0.00  0.00    -0.352 N 
ATOM     46  HE1 TRP A   3      -6.314   0.265  13.836  0.00  0.00    +0.166 HD
ATOM     47  CD1 TRP A   3      -5.735  -1.482  12.816  0.00  0.00    +0.068 A 
ENDBRANCH  37  38
ENDBRANCH  26  37
ENDBRANCH   2  26
TORSDOF 17
REMARK  Name = ../refined-set-2016/4lar/4lar_pocket.pdb
REMARK  144 active torsions:
REMARK  status: ('A' for Active; 'I' for Inactive)
REMARK    1  A    between atoms: _1  and  _3
REMARK    2  A    between atoms: _3  and  _4
REMARK    3  A    between atoms: _6  and  _8
REMARK    4  A    between atoms: _8  and  _9
REMARK    5  A    between atoms: _8  and  _11
REMARK    6  A    between atoms: _11  and  _12
REMARK    7  A    between atoms: _17  and  _18
REMARK    8  A    between atoms: _20  and  _22
REMARK    9  A    between atoms: _22  and  _23
REMARK   10  A    between atoms: _22  and  _25
REMARK   11  A    between atoms: _25  and  _26
REMARK   12  A    between atoms: _36  and  _38
REMARK   13  A    between atoms: _38  and  _39
REMARK   14  A    between atoms: _38  and  _41
REMARK   15  A    between atoms: _41  and  _42
REMARK   16  A    between atoms: _44  and  _46
REMARK   17  A    between atoms: _46  and  _47
REMARK   18  A    between atoms: _46  and  _49
REMARK   19  A    between atoms: _49  and  _50
REMARK   20  A    between atoms: _60  and  _62
REMARK   21  A    between atoms: _62  and  _63
REMARK   22  A    between atoms: _62  and  _65
REMARK   23  A    between atoms: _65  and  _66
REMARK   24  A    between atoms: _69  and  _71
REMARK   25  A    between atoms: _71  and  _72
REMARK   26  A    between atoms: _71  and  _74
REMARK   27  A    between atoms: _74  and  _75
REMARK   28  A    between atoms: _80  and  _81
REMARK   29  A    between atoms: _83  and  _85
REMARK   30  A    between atoms: _85  and  _86
REMARK   31  A    between atoms: _88  and  _90
REMARK   32  A    between atoms: _90  and  _91
REMARK   33  A    between atoms: _90  and  _93
REMARK   34  A    between atoms: _93  and  _94
REMARK   35  A    between atoms: _99  and  _100
REMARK   36  A    between atoms: _102  and  _104
REMARK   37  A    between atoms: _104  and  _105
REMARK   38  A    between atoms: _104  and  _107
REMARK   39  A    between atoms: _107  and  _108
REMARK   40  A    between atoms: _111  and  _113
REMARK   41  A    between atoms: _113  and  _114
REMARK   42  A    between atoms: _113  and  _116
REMARK   43  A    between atoms: _116  and  _117
REMARK   44  A    between atoms: _119  and  _121
REMARK   45  A    between atoms: _121  and  _122
REMARK   46  A    between atoms: _121  and  _124
REMARK   47  A    between atoms: _124  and  _125
REMARK   48  A    between atoms: _130  and  _131
REMARK   49  A    between atoms: _133  and  _135
REMARK   50  A    between atoms: _135  and  _136
REMARK   51  A    between atoms: _135  and  _138
REMARK   52  A    between atoms: _138  and  _139
REMARK   53  A    between atoms: _141  and  _143
REMARK   54  A    between atoms: _143  and  _144
REMARK   55  A    between atoms: _143  and  _146
REMARK   56  A    between atoms: _146  and  _147
REMARK   57  A    between atoms: _152  and  _153
REMARK   58  A    between atoms: _155  and  _157
REMARK   59  A    between atoms: _157  and  _158
REMARK   60  A    between atoms: _157  and  _160
REMARK   61  A    between atoms: _160  and  _161
REMARK   62  A    between atoms: _167  and  _169
REMARK   63  A    between atoms: _169  and  _170
REMARK   64  A    between atoms: _169  and  _172
REMARK   65  A    between atoms: _172  and  _173
REMARK   66  A    between atoms: _176  and  _178
REMARK   67  A    between atoms: _178  and  _179
REMARK   68  A    between atoms: _178  and  _181
REMARK   69  A    between atoms: _181  and  _182
REMARK   70  A    between atoms: _184  and  _186
REMARK   71  A    between atoms: _186  and  _187
REMARK   72  A    between atoms: _186  and  _189
REMARK   73  A    between atoms: _189  and  _190
REMARK   74  A    between atoms: _195  and  _196
REMARK   75  A    between atoms: _198  and  _200
REMARK   76  A    between atoms: _200  and  _201
REMARK   77  A    between atoms: _200  and  _203
REMARK   78  A    between atoms: _203  and  _204
REMARK   79  A    between atoms: _204  and  _205
REMARK   80  A    between atoms: _207  and  _209
REMARK   81  A    between atoms: _209  and  _210
REMARK   82  A    between atoms: _209  and  _212
REMARK   83  A    between atoms: _212  and  _213
REMARK   84  A    between atoms: _213  and  _214
REMARK   85  A    between atoms: _217  and  _219
REMARK   86  A    between atoms: _219  and  _220
REMARK   87  A    between atoms: _219  and  _222
REMARK   88  A    between atoms: _222  and  _223
REMARK   89  A    between atoms: _228  and  _229
REMARK   90  A    between atoms: _231  and  _233
REMARK   91  A    between atoms: _233  and  _234
REMARK   92  A    between atoms: _233  and  _236
REMARK   93  A    between atoms: _236  and  _237
REMARK   94  A    between atoms: _247  and  _249
REMARK   95  A    between atoms: _249  and  _250
REMARK   96  A    between atoms: _249  and  _252
REMARK   97  A    between atoms: _252  and  _253
REMARK   98  A    between atoms: _258  and  _260
REMARK   99  A    between atoms: _260  and  _261
REMARK  100  A    between atoms: _260  and  _263
REMARK  101  A    between atoms: _263  and  _264
REMARK  102  A    between atoms: _269  and  _270
REMARK  103  A    between atoms: _272  and  _274
REMARK  104  A    between atoms: _274  and  _275
REMARK  105  A    between atoms: _274  and  _277
REMARK  106  A    between atoms: _277  and  _278
REMARK  107  A    between atoms: _283  and  _284
REMARK  108  A    between atoms: _286  and  _288
REMARK  109  A    between atoms: _288  and  _289
REMARK  110  A    between atoms: _288  and  _291
REMARK  111  A    between atoms: _291  and  _292
REMARK  112  A    between atoms: _295  and  _297
REMARK  113  A    between atoms: _297  and  _298
REMARK  114  A    between atoms: _297  and  _300
REMARK  115  A    between atoms: _300  and  _301
REMARK  116  A    between atoms: _306  and  _308
REMARK  117  A    between atoms: _308  and  _309
REMARK  118  A    between atoms: _308  and  _311
REMARK  119  A    between atoms: _311  and  _312
REMARK  120  A    between atoms: _312  and  _313
REMARK  121  A    between atoms: _318  and  _320
REMARK  122  A    between atoms: _320  and  _321
REMARK  123  A    between atoms: _320  and  _323
REMARK  124  A    between atoms: _323  and  _324
REMARK  125  A    between atoms: _334  and  _336
REMARK  126  A    between atoms: _336  and  _337
REMARK  127  A    between atoms: _336  and  _339
REMARK  128  A    between atoms: _339  and  _340
REMARK  129  A    between atoms: _342  and  _344
REMARK  130  A    between atoms: _344  and  _345
REMARK  131  A    between atoms: _344  and  _347
REMARK  132  A    between atoms: _347  and  _348
REMARK  133  A    between atoms: _354  and  _356
REMARK  134  A    between atoms: _356  and  _357
REMARK  135  A    between atoms: _356  and  _359
REMARK  136  A    between atoms: _359  and  _360
REMARK  137  A    between atoms: _366  and  _368
REMARK  138  A    between atoms: _368  and  _369
REMARK  139  A    between atoms: _368  and  _371
REMARK  140  A    between atoms: _371  and  _372
REMARK  141  A    between atoms: _375  and  _377
REMARK  142  A    between atoms: _377  and  _378
REMARK  143  A    between atoms: _377  and  _380
REMARK  144  A    between atoms: _380  and  _381
REMARK                            x       y       z     vdW  Elec       q    Type
REMARK                         _______ _______ _______ _____ _____    ______ ____
ROOT
ATOM      1  CB  PHE A   1      -6.905 -11.628   9.732  0.00  0.00    +0.051 C 
ENDROOT
BRANCH   1   2
ATOM      2  CG  PHE A   1      -7.527 -11.050  11.010  0.00  0.00    -0.020 A 
ATOM      3  CD2 PHE A   1      -6.825 -11.051  12.219  0.00  0.00    -0.004 A 
ATOM      4  CE2 PHE A   1      -7.405 -10.507  13.401  0.00  0.00    -0.000 A 
ATOM      5  CZ  PHE A   1      -8.675  -9.958  13.366  0.00  0.00    -0.000 A 
ATOM      6  CE1 PHE A   1      -9.387  -9.934  12.171  0.00  0.00    -0.000 A 
ATOM      7  CD1 PHE A   1      -8.821 -10.468  10.997  0.00  0.00    -0.004 A 
ENDBRANCH   1   2
BRANCH   1   8
ATOM      8  CA  PHE A   1      -6.384 -10.539   8.730  0.00  0.00    +0.137 C 
BRANCH   8   9
ATOM      9  N   PHE A   1      -7.475  -9.690   8.237  0.00  0.00    -0.239 NA
ATOM     10  H   PHE A   1      -8.409 -10.120   8.079  0.00  0.00    +0.142 HD
ENDBRANCH   8   9
BRANCH   8  11
ATOM     11  C   PHE A   1      -5.607 -11.190   7.568  0.00  0.00    +0.224 C 
ATOM     12  O   PHE A   1      -6.221 -11.617   6.609  0.00  0.00    -0.287 OA
ENDBRANCH   8  11
ENDBRANCH   1   8
TORSDOF 4
REMARK  Name = ../refined-set-2016/4lar/4lar_pocket.pdb
REMARK  144 active torsions:
REMARK  status: ('A' for Active; 'I' for Inactive)
REMARK    1  A    between atoms: _1  and  _3
REMARK    2  A    between atoms: _3  and  _4
REMARK    3  A    between atoms: _6  and  _8
REMARK    4  A    between atoms: _8  and  _9
REMARK    5  A    between atoms: _8  and  _11
REMARK    6  A    between atoms: _11  and  _12
REMARK    7  A    between atoms: _17  and  _18
REMARK    8  A    between atoms: _20  and  _22
REMARK    9  A    between atoms: _22  and  _23
REMARK   10  A    between atoms: _22  and  _25
REMARK   11  A    between atoms: _25  and  _26
REMARK   12  A    between atoms: _36  and  _38
REMARK   13  A    between atoms: _38  and  _39
REMARK   14  A    between atoms: _38  and  _41
REMARK   15  A    between atoms: _41  and  _42
REMARK   16  A    between atoms: _44  and  _46
REMARK   17  A    between atoms: _46  and  _47
REMARK   18  A    between atoms: _46  and  _49
REMARK   19  A    between atoms: _49  and  _50
REMARK   20  A    between atoms: _60  and  _62
REMARK   21  A    between atoms: _62  and  _63
REMARK   22  A    between atoms: _62  and  _65
REMARK   23  A    between atoms: _65  and  _66
REMARK   24  A    between atoms: _69  and  _71
REMARK   25  A    between atoms: _71  and  _72
REMARK   26  A    between atoms: _71  and  _74
REMARK   27  A    between atoms: _74  and  _75
REMARK   28  A    between atoms: _80  and  _81
REMARK   29  A    between atoms: _83  and  _85
REMARK   30  A    between atoms: _85  and  _86
REMARK   31  A    between atoms: _88  and  _90
REMARK   32  A    between atoms: _90  and  _91
REMARK   33  A    between atoms: _90  and  _93
REMARK   34  A    between atoms: _93  and  _94
REMARK   35  A    between atoms: _99  and  _100
REMARK   36  A    between atoms: _102  and  _104
REMARK   37  A    between atoms: _104  and  _105
REMARK   38  A    between atoms: _104  and  _107
REMARK   39  A    between atoms: _107  and  _108
REMARK   40  A    between atoms: _111  and  _113
REMARK   41  A    between atoms: _113  and  _114
REMARK   42  A    between atoms: _113  and  _116
REMARK   43  A    between atoms: _116  and  _117
REMARK   44  A    between atoms: _119  and  _121
REMARK   45  A    between atoms: _121  and  _122
REMARK   46  A    between atoms: _121  and  _124
REMARK   47  A    between atoms: _124  and  _125
REMARK   48  A    between atoms: _130  and  _131
REMARK   49  A    between atoms: _133  and  _135
REMARK   50  A    between atoms: _135  and  _136
REMARK   51  A    between atoms: _135  and  _138
REMARK   52  A    between atoms: _138  and  _139
REMARK   53  A    between atoms: _141  and  _143
REMARK   54  A    between atoms: _143  and  _144
REMARK   55  A    between atoms: _143  and  _146
REMARK   56  A    between atoms: _146  and  _147
REMARK   57  A    between atoms: _152  and  _153
REMARK   58  A    between atoms: _155  and  _157
REMARK   59  A    between atoms: _157  and  _158
REMARK   60  A    between atoms: _157  and  _160
REMARK   61  A    between atoms: _160  and  _161
REMARK   62  A    between atoms: _167  and  _169
REMARK   63  A    between atoms: _169  and  _170
REMARK   64  A    between atoms: _169  and  _172
REMARK   65  A    between atoms: _172  and  _173
REMARK   66  A    between atoms: _176  and  _178
REMARK   67  A    between atoms: _178  and  _179
REMARK   68  A    between atoms: _178  and  _181
REMARK   69  A    between atoms: _181  and  _182
REMARK   70  A    between atoms: _184  and  _186
REMARK   71  A    between atoms: _186  and  _187
REMARK   72  A    between atoms: _186  and  _189
REMARK   73  A    between atoms: _189  and  _190
REMARK   74  A    between atoms: _195  and  _196
REMARK   75  A    between atoms: _198  and  _200
REMARK   76  A    between atoms: _200  and  _201
REMARK   77  A    between atoms: _200  and  _203
REMARK   78  A    between atoms: _203  and  _204
REMARK   79  A    between atoms: _204  and  _205
REMARK   80  A    between atoms: _207  and  _209
REMARK   81  A    between atoms: _209  and  _210
REMARK   82  A    between atoms: _209  and  _212
REMARK   83  A    between atoms: _212  and  _213
REMARK   84  A    between atoms: _213  and  _214
REMARK   85  A    between atoms: _217  and  _219
REMARK   86  A    between atoms: _219  and  _220
REMARK   87  A    between atoms: _219  and  _222
REMARK   88  A    between atoms: _222  and  _223
REMARK   89  A    between atoms: _228  and  _229
REMARK   90  A    between atoms: _231  and  _233
REMARK   91  A    between atoms: _233  and  _234
REMARK   92  A    between atoms: _233  and  _236
REMARK   93  A    between atoms: _236  and  _237
REMARK   94  A    between atoms: _247  and  _249
REMARK   95  A    between atoms: _249  and  _250
REMARK   96  A    between atoms: _249  and  _252
REMARK   97  A    between atoms: _252  and  _253
REMARK   98  A    between atoms: _258  and  _260
REMARK   99  A    between atoms: _260  and  _261
REMARK  100  A    between atoms: _260  and  _263
REMARK  101  A    between atoms: _263  and  _264
REMARK  102  A    between atoms: _269  and  _270
REMARK  103  A    between atoms: _272  and  _274
REMARK  104  A    between atoms: _274  and  _275
REMARK  105  A    between atoms: _274  and  _277
REMARK  106  A    between atoms: _277  and  _278
REMARK  107  A    between atoms: _283  and  _284
REMARK  108  A    between atoms: _286  and  _288
REMARK  109  A    between atoms: _288  and  _289
REMARK  110  A    between atoms: _288  and  _291
REMARK  111  A    between atoms: _291  and  _292
REMARK  112  A    between atoms: _295  and  _297
REMARK  113  A    between atoms: _297  and  _298
REMARK  114  A    between atoms: _297  and  _300
REMARK  115  A    between atoms: _300  and  _301
REMARK  116  A    between atoms: _306  and  _308
REMARK  117  A    between atoms: _308  and  _309
REMARK  118  A    between atoms: _308  and  _311
REMARK  119  A    between atoms: _311  and  _312
REMARK  120  A    between atoms: _312  and  _313
REMARK  121  A    between atoms: _318  and  _320
REMARK  122  A    between atoms: _320  and  _321
REMARK  123  A    between atoms: _320  and  _323
REMARK  124  A    between atoms: _323  and  _324
REMARK  125  A    between atoms: _334  and  _336
REMARK  126  A    between atoms: _336  and  _337
REMARK  127  A    between atoms: _336  and  _339
REMARK  128  A    between atoms: _339  and  _340
REMARK  129  A    between atoms: _342  and  _344
REMARK  130  A    between atoms: _344  and  _345
REMARK  131  A    between atoms: _344  and  _347
REMARK  132  A    between atoms: _347  and  _348
REMARK  133  A    between atoms: _354  and  _356
REMARK  134  A    between atoms: _356  and  _357
REMARK  135  A    between atoms: _356  and  _359
REMARK  136  A    between atoms: _359  and  _360
REMARK  137  A    between atoms: _366  and  _368
REMARK  138  A    between atoms: _368  and  _369
REMARK  139  A    between atoms: _368  and  _371
REMARK  140  A    between atoms: _371  and  _372
REMARK  141  A    between atoms: _375  and  _377
REMARK  142  A    between atoms: _377  and  _378
REMARK  143  A    between atoms: _377  and  _380
REMARK  144  A    between atoms: _380  and  _381
REMARK                            x       y       z     vdW  Elec       q    Type
REMARK                         _______ _______ _______ _____ _____    ______ ____
ROOT
ATOM      1  CA  THR A   2      -0.354  -5.372   7.006  0.00  0.00    +0.176 C 
ENDROOT
BRANCH   1   4
ATOM      2  C   PHE A   1      -1.570  -6.718   8.575  0.00  0.00    +0.239 C 
ATOM      3  O   PHE A   1      -0.659  -7.541   8.638  0.00  0.00    -0.274 OA
ATOM      4  N   THR A   2      -1.500  -5.611   7.851  0.00  0.00    -0.295 N 
ATOM      5  H   THR A   2      -2.271  -4.914   7.891  0.00  0.00    +0.150 HD
BRANCH   2   6
ATOM      6  CA  PHE A   1      -2.836  -6.943   9.339  0.00  0.00    +0.149 C 
BRANCH   6   7
ATOM      7  N   PHE A   1      -2.974  -8.324   9.523  0.00  0.00    -0.238 NA
ATOM      8  H   PHE A   1      -2.787  -8.760  10.449  0.00  0.00    +0.142 HD
ENDBRANCH   6   7
BRANCH   6   9
ATOM      9  CB  PHE A   1      -2.740  -6.296  10.699  0.00  0.00    +0.053 C 
BRANCH   9  10
ATOM     10  CG  PHE A   1      -3.796  -6.783  11.674  0.00  0.00    -0.020 A 
ATOM     11  CD2 PHE A   1      -3.472  -6.962  13.009  0.00  0.00    -0.004 A 
ATOM     12  CE2 PHE A   1      -4.436  -7.404  13.904  0.00  0.00    -0.000 A 
ATOM     13  CZ  PHE A   1      -5.772  -7.634  13.455  0.00  0.00    -0.000 A 
ATOM     14  CE1 PHE A   1      -6.104  -7.462  12.120  0.00  0.00    -0.000 A 
ATOM     15  CD1 PHE A   1      -5.115  -7.059  11.235  0.00  0.00    -0.004 A 
ENDBRANCH   9  10
ENDBRANCH   6   9
ENDBRANCH   2   6
ENDBRANCH   1   4
BRANCH   1  16
ATOM     16  C   THR A   2       0.090  -3.951   7.117  0.00  0.00    +0.243 C 
ATOM     17  O   THR A   2      -0.652  -3.074   7.523  0.00  0.00    -0.273 OA
ATOM     18  N   PHE A   3       1.342  -3.737   6.782  0.00  0.00    -0.298 N 
ATOM     19  H   PHE A   3       1.957  -4.547   6.563  0.00  0.00    +0.150 HD
BRANCH  18  20
ATOM     20  CA  PHE A   3       1.878  -2.405   6.712  0.00  0.00    +0.141 C 
BRANCH  20  21
ATOM     21  C   PHE A   3       2.217  -2.022   5.264  0.00  0.00    +0.227 C 
ATOM     22  O   PHE A   3       2.488  -2.892   4.427  0.00  0.00    -0.286 OA
ENDBRANCH  20  21
BRANCH  20  23
ATOM     23  CB  PHE A   3       3.109  -2.345   7.595  0.00  0.00    +0.054 C 
BRANCH  23  24
ATOM     24  CG  PHE A   3       2.793  -2.373   9.063  0.00  0.00    -0.020 A 
ATOM     25  CD2 PHE A   3       2.683  -1.193   9.768  0.00  0.00    -0.004 A 
ATOM     26  CE2 PHE A   3       2.360  -1.233  11.157  0.00  0.00    -0.000 A 
ATOM     27  CZ  PHE A   3       2.159  -2.457  11.807  0.00  0.00    -0.000 A 
ATOM     28  CE1 PHE A   3       2.267  -3.633  11.067  0.00  0.00    -0.000 A 
ATOM     29  CD1 PHE A   3       2.559  -3.586   9.723  0.00  0.00    -0.004 A 
ENDBRANCH  23  24
ENDBRANCH  20  23
ENDBRANCH  18  20
ENDBRANCH   1  16
BRANCH   1  30
ATOM     30  CB  THR A   2      -0.695  -5.624   5.544  0.00  0.00    +0.137 C 
ATOM     31  CG2 THR A   2      -0.747  -7.151   5.205  0.00  0.00    +0.034 C 
BRANCH  30  32
ATOM     32  OG1 THR A   2      -1.967  -5.029   5.293  0.00  0.00    -0.382 OA
ATOM     33  HG1 THR A   2      -2.218  -5.176   4.347  0.00  0.00    +0.210 HD
ENDBRANCH  30  32
ENDBRANCH   1  30
TORSDOF 12
REMARK  Name = ../refined-set-2016/4lar/4lar_pocket.pdb
REMARK  144 active torsions:
REMARK  status: ('A' for Active; 'I' for Inactive)
REMARK    1  A    between atoms: _1  and  _3
REMARK    2  A    between atoms: _3  and  _4
REMARK    3  A    between atoms: _6  and  _8
REMARK    4  A    between atoms: _8  and  _9
REMARK    5  A    between atoms: _8  and  _11
REMARK    6  A    between atoms: _11  and  _12
REMARK    7  A    between atoms: _17  and  _18
REMARK    8  A    between atoms: _20  and  _22
REMARK    9  A    between atoms: _22  and  _23
REMARK   10  A    between atoms: _22  and  _25
REMARK   11  A    between atoms: _25  and  _26
REMARK   12  A    between atoms: _36  and  _38
REMARK   13  A    between atoms: _38  and  _39
REMARK   14  A    between atoms: _38  and  _41
REMARK   15  A    between atoms: _41  and  _42
REMARK   16  A    between atoms: _44  and  _46
REMARK   17  A    between atoms: _46  and  _47
REMARK   18  A    between atoms: _46  and  _49
REMARK   19  A    between atoms: _49  and  _50
REMARK   20  A    between atoms: _60  and  _62
REMARK   21  A    between atoms: _62  and  _63
REMARK   22  A    between atoms: _62  and  _65
REMARK   23  A    between atoms: _65  and  _66
REMARK   24  A    between atoms: _69  and  _71
REMARK   25  A    between atoms: _71  and  _72
REMARK   26  A    between atoms: _71  and  _74
REMARK   27  A    between atoms: _74  and  _75
REMARK   28  A    between atoms: _80  and  _81
REMARK   29  A    between atoms: _83  and  _85
REMARK   30  A    between atoms: _85  and  _86
REMARK   31  A    between atoms: _88  and  _90
REMARK   32  A    between atoms: _90  and  _91
REMARK   33  A    between atoms: _90  and  _93
REMARK   34  A    between atoms: _93  and  _94
REMARK   35  A    between atoms: _99  and  _100
REMARK   36  A    between atoms: _102  and  _104
REMARK   37  A    between atoms: _104  and  _105
REMARK   38  A    between atoms: _104  and  _107
REMARK   39  A    between atoms: _107  and  _108
REMARK   40  A    between atoms: _111  and  _113
REMARK   41  A    between atoms: _113  and  _114
REMARK   42  A    between atoms: _113  and  _116
REMARK   43  A    between atoms: _116  and  _117
REMARK   44  A    between atoms: _119  and  _121
REMARK   45  A    between atoms: _121  and  _122
REMARK   46  A    between atoms: _121  and  _124
REMARK   47  A    between atoms: _124  and  _125
REMARK   48  A    between atoms: _130  and  _131
REMARK   49  A    between atoms: _133  and  _135
REMARK   50  A    between atoms: _135  and  _136
REMARK   51  A    between atoms: _135  and  _138
REMARK   52  A    between atoms: _138  and  _139
REMARK   53  A    between atoms: _141  and  _143
REMARK   54  A    between atoms: _143  and  _144
REMARK   55  A    between atoms: _143  and  _146
REMARK   56  A    between atoms: _146  and  _147
REMARK   57  A    between atoms: _152  and  _153
REMARK   58  A    between atoms: _155  and  _157
REMARK   59  A    between atoms: _157  and  _158
REMARK   60  A    between atoms: _157  and  _160
REMARK   61  A    between atoms: _160  and  _161
REMARK   62  A    between atoms: _167  and  _169
REMARK   63  A    between atoms: _169  and  _170
REMARK   64  A    between atoms: _169  and  _172
REMARK   65  A    between atoms: _172  and  _173
REMARK   66  A    between atoms: _176  and  _178
REMARK   67  A    between atoms: _178  and  _179
REMARK   68  A    between atoms: _178  and  _181
REMARK   69  A    between atoms: _181  and  _182
REMARK   70  A    between atoms: _184  and  _186
REMARK   71  A    between atoms: _186  and  _187
REMARK   72  A    between atoms: _186  and  _189
REMARK   73  A    between atoms: _189  and  _190
REMARK   74  A    between atoms: _195  and  _196
REMARK   75  A    between atoms: _198  and  _200
REMARK   76  A    between atoms: _200  and  _201
REMARK   77  A    between atoms: _200  and  _203
REMARK   78  A    between atoms: _203  and  _204
REMARK   79  A    between atoms: _204  and  _205
REMARK   80  A    between atoms: _207  and  _209
REMARK   81  A    between atoms: _209  and  _210
REMARK   82  A    between atoms: _209  and  _212
REMARK   83  A    between atoms: _212  and  _213
REMARK   84  A    between atoms: _213  and  _214
REMARK   85  A    between atoms: _217  and  _219
REMARK   86  A    between atoms: _219  and  _220
REMARK   87  A    between atoms: _219  and  _222
REMARK   88  A    between atoms: _222  and  _223
REMARK   89  A    between atoms: _228  and  _229
REMARK   90  A    between atoms: _231  and  _233
REMARK   91  A    between atoms: _233  and  _234
REMARK   92  A    between atoms: _233  and  _236
REMARK   93  A    between atoms: _236  and  _237
REMARK   94  A    between atoms: _247  and  _249
REMARK   95  A    between atoms: _249  and  _250
REMARK   96  A    between atoms: _249  and  _252
REMARK   97  A    between atoms: _252  and  _253
REMARK   98  A    between atoms: _258  and  _260
REMARK   99  A    between atoms: _260  and  _261
REMARK  100  A    between atoms: _260  and  _263
REMARK  101  A    between atoms: _263  and  _264
REMARK  102  A    between atoms: _269  and  _270
REMARK  103  A    between atoms: _272  and  _274
REMARK  104  A    between atoms: _274  and  _275
REMARK  105  A    between atoms: _274  and  _277
REMARK  106  A    between atoms: _277  and  _278
REMARK  107  A    between atoms: _283  and  _284
REMARK  108  A    between atoms: _286  and  _288
REMARK  109  A    between atoms: _288  and  _289
REMARK  110  A    between atoms: _288  and  _291
REMARK  111  A    between atoms: _291  and  _292
REMARK  112  A    between atoms: _295  and  _297
REMARK  113  A    between atoms: _297  and  _298
REMARK  114  A    between atoms: _297  and  _300
REMARK  115  A    between atoms: _300  and  _301
REMARK  116  A    between atoms: _306  and  _308
REMARK  117  A    between atoms: _308  and  _309
REMARK  118  A    between atoms: _308  and  _311
REMARK  119  A    between atoms: _311  and  _312
REMARK  120  A    between atoms: _312  and  _313
REMARK  121  A    between atoms: _318  and  _320
REMARK  122  A    between atoms: _320  and  _321
REMARK  123  A    between atoms: _320  and  _323
REMARK  124  A    between atoms: _323  and  _324
REMARK  125  A    between atoms: _334  and  _336
REMARK  126  A    between atoms: _336  and  _337
REMARK  127  A    between atoms: _336  and  _339
REMARK  128  A    between atoms: _339  and  _340
REMARK  129  A    between atoms: _342  and  _344
REMARK  130  A    between atoms: _344  and  _345
REMARK  131  A    between atoms: _344  and  _347
REMARK  132  A    between atoms: _347  and  _348
REMARK  133  A    between atoms: _354  and  _356
REMARK  134  A    between atoms: _356  and  _357
REMARK  135  A    between atoms: _356  and  _359
REMARK  136  A    between atoms: _359  and  _360
REMARK  137  A    between atoms: _366  and  _368
REMARK  138  A    between atoms: _368  and  _369
REMARK  139  A    between atoms: _368  and  _371
REMARK  140  A    between atoms: _371  and  _372
REMARK  141  A    between atoms: _375  and  _377
REMARK  142  A    between atoms: _377  and  _378
REMARK  143  A    between atoms: _377  and  _380
REMARK  144  A    between atoms: _380  and  _381
REMARK                            x       y       z     vdW  Elec       q    Type
REMARK                         _______ _______ _______ _____ _____    ______ ____
ROOT
ATOM      1  O   HOH     1      -1.273  -5.819  20.004  0.00  0.00    +0.000 OA
ENDROOT
TORSDOF 0
REMARK  Name = ../refined-set-2016/4lar/4lar_pocket.pdb
REMARK  144 active torsions:
REMARK  status: ('A' for Active; 'I' for Inactive)
REMARK    1  A    between atoms: _1  and  _3
REMARK    2  A    between atoms: _3  and  _4
REMARK    3  A    between atoms: _6  and  _8
REMARK    4  A    between atoms: _8  and  _9
REMARK    5  A    between atoms: _8  and  _11
REMARK    6  A    between atoms: _11  and  _12
REMARK    7  A    between atoms: _17  and  _18
REMARK    8  A    between atoms: _20  and  _22
REMARK    9  A    between atoms: _22  and  _23
REMARK   10  A    between atoms: _22  and  _25
REMARK   11  A    between atoms: _25  and  _26
REMARK   12  A    between atoms: _36  and  _38
REMARK   13  A    between atoms: _38  and  _39
REMARK   14  A    between atoms: _38  and  _41
REMARK   15  A    between atoms: _41  and  _42
REMARK   16  A    between atoms: _44  and  _46
REMARK   17  A    between atoms: _46  and  _47
REMARK   18  A    between atoms: _46  and  _49
REMARK   19  A    between atoms: _49  and  _50
REMARK   20  A    between atoms: _60  and  _62
REMARK   21  A    between atoms: _62  and  _63
REMARK   22  A    between atoms: _62  and  _65
REMARK   23  A    between atoms: _65  and  _66
REMARK   24  A    between atoms: _69  and  _71
REMARK   25  A    between atoms: _71  and  _72
REMARK   26  A    between atoms: _71  and  _74
REMARK   27  A    between atoms: _74  and  _75
REMARK   28  A    between atoms: _80  and  _81
REMARK   29  A    between atoms: _83  and  _85
REMARK   30  A    between atoms: _85  and  _86
REMARK   31  A    between atoms: _88  and  _90
REMARK   32  A    between atoms: _90  and  _91
REMARK   33  A    between atoms: _90  and  _93
REMARK   34  A    between atoms: _93  and  _94
REMARK   35  A    between atoms: _99  and  _100
REMARK   36  A    between atoms: _102  and  _104
REMARK   37  A    between atoms: _104  and  _105
REMARK   38  A    between atoms: _104  and  _107
REMARK   39  A    between atoms: _107  and  _108
REMARK   40  A    between atoms: _111  and  _113
REMARK   41  A    between atoms: _113  and  _114
REMARK   42  A    between atoms: _113  and  _116
REMARK   43  A    between atoms: _116  and  _117
REMARK   44  A    between atoms: _119  and  _121
REMARK   45  A    between atoms: _121  and  _122
REMARK   46  A    between atoms: _121  and  _124
REMARK   47  A    between atoms: _124  and  _125
REMARK   48  A    between atoms: _130  and  _131
REMARK   49  A    between atoms: _133  and  _135
REMARK   50  A    between atoms: _135  and  _136
REMARK   51  A    between atoms: _135  and  _138
REMARK   52  A    between atoms: _138  and  _139
REMARK   53  A    between atoms: _141  and  _143
REMARK   54  A    between atoms: _143  and  _144
REMARK   55  A    between atoms: _143  and  _146
REMARK   56  A    between atoms: _146  and  _147
REMARK   57  A    between atoms: _152  and  _153
REMARK   58  A    between atoms: _155  and  _157
REMARK   59  A    between atoms: _157  and  _158
REMARK   60  A    between atoms: _157  and  _160
REMARK   61  A    between atoms: _160  and  _161
REMARK   62  A    between atoms: _167  and  _169
REMARK   63  A    between atoms: _169  and  _170
REMARK   64  A    between atoms: _169  and  _172
REMARK   65  A    between atoms: _172  and  _173
REMARK   66  A    between atoms: _176  and  _178
REMARK   67  A    between atoms: _178  and  _179
REMARK   68  A    between atoms: _178  and  _181
REMARK   69  A    between atoms: _181  and  _182
REMARK   70  A    between atoms: _184  and  _186
REMARK   71  A    between atoms: _186  and  _187
REMARK   72  A    between atoms: _186  and  _189
REMARK   73  A    between atoms: _189  and  _190
REMARK   74  A    between atoms: _195  and  _196
REMARK   75  A    between atoms: _198  and  _200
REMARK   76  A    between atoms: _200  and  _201
REMARK   77  A    between atoms: _200  and  _203
REMARK   78  A    between atoms: _203  and  _204
REMARK   79  A    between atoms: _204  and  _205
REMARK   80  A    between atoms: _207  and  _209
REMARK   81  A    between atoms: _209  and  _210
REMARK   82  A    between atoms: _209  and  _212
REMARK   83  A    between atoms: _212  and  _213
REMARK   84  A    between atoms: _213  and  _214
REMARK   85  A    between atoms: _217  and  _219
REMARK   86  A    between atoms: _219  and  _220
REMARK   87  A    between atoms: _219  and  _222
REMARK   88  A    between atoms: _222  and  _223
REMARK   89  A    between atoms: _228  and  _229
REMARK   90  A    between atoms: _231  and  _233
REMARK   91  A    between atoms: _233  and  _234
REMARK   92  A    between atoms: _233  and  _236
REMARK   93  A    between atoms: _236  and  _237
REMARK   94  A    between atoms: _247  and  _249
REMARK   95  A    between atoms: _249  and  _250
REMARK   96  A    between atoms: _249  and  _252
REMARK   97  A    between atoms: _252  and  _253
REMARK   98  A    between atoms: _258  and  _260
REMARK   99  A    between atoms: _260  and  _261
REMARK  100  A    between atoms: _260  and  _263
REMARK  101  A    between atoms: _263  and  _264
REMARK  102  A    between atoms: _269  and  _270
REMARK  103  A    between atoms: _272  and  _274
REMARK  104  A    between atoms: _274  and  _275
REMARK  105  A    between atoms: _274  and  _277
REMARK  106  A    between atoms: _277  and  _278
REMARK  107  A    between atoms: _283  and  _284
REMARK  108  A    between atoms: _286  and  _288
REMARK  109  A    between atoms: _288  and  _289
REMARK  110  A    between atoms: _288  and  _291
REMARK  111  A    between atoms: _291  and  _292
REMARK  112  A    between atoms: _295  and  _297
REMARK  113  A    between atoms: _297  and  _298
REMARK  114  A    between atoms: _297  and  _300
REMARK  115  A    between atoms: _300  and  _301
REMARK  116  A    between atoms: _306  and  _308
REMARK  117  A    between atoms: _308  and  _309
REMARK  118  A    between atoms: _308  and  _311
REMARK  119  A    between atoms: _311  and  _312
REMARK  120  A    between atoms: _312  and  _313
REMARK  121  A    between atoms: _318  and  _320
REMARK  122  A    between atoms: _320  and  _321
REMARK  123  A    between atoms: _320  and  _323
REMARK  124  A    between atoms: _323  and  _324
REMARK  125  A    between atoms: _334  and  _336
REMARK  126  A    between atoms: _336  and  _337
REMARK  127  A    between atoms: _336  and  _339
REMARK  128  A    between atoms: _339  and  _340
REMARK  129  A    between atoms: _342  and  _344
REMARK  130  A    between atoms: _344  and  _345
REMARK  131  A    between atoms: _344  and  _347
REMARK  132  A    between atoms: _347  and  _348
REMARK  133  A    between atoms: _354  and  _356
REMARK  134  A    between atoms: _356  and  _357
REMARK  135  A    between atoms: _356  and  _359
REMARK  136  A    between atoms: _359  and  _360
REMARK  137  A    between atoms: _366  and  _368
REMARK  138  A    between atoms: _368  and  _369
REMARK  139  A    between atoms: _368  and  _371
REMARK  140  A    between atoms: _371  and  _372
REMARK  141  A    between atoms: _375  and  _377
REMARK  142  A    between atoms: _377  and  _378
REMARK  143  A    between atoms: _377  and  _380
REMARK  144  A    between atoms: _380  and  _381
REMARK                            x       y       z     vdW  Elec       q    Type
REMARK                         _______ _______ _______ _____ _____    ______ ____
ROOT
ATOM      1  O   HOH     1      -0.095  -3.805  19.168  0.00  0.00    +0.000 OA
ENDROOT
TORSDOF 0
REMARK  Name = ../refined-set-2016/4lar/4lar_pocket.pdb
REMARK  144 active torsions:
REMARK  status: ('A' for Active; 'I' for Inactive)
REMARK    1  A    between atoms: _1  and  _3
REMARK    2  A    between atoms: _3  and  _4
REMARK    3  A    between atoms: _6  and  _8
REMARK    4  A    between atoms: _8  and  _9
REMARK    5  A    between atoms: _8  and  _11
REMARK    6  A    between atoms: _11  and  _12
REMARK    7  A    between atoms: _17  and  _18
REMARK    8  A    between atoms: _20  and  _22
REMARK    9  A    between atoms: _22  and  _23
REMARK   10  A    between atoms: _22  and  _25
REMARK   11  A    between atoms: _25  and  _26
REMARK   12  A    between atoms: _36  and  _38
REMARK   13  A    between atoms: _38  and  _39
REMARK   14  A    between atoms: _38  and  _41
REMARK   15  A    between atoms: _41  and  _42
REMARK   16  A    between atoms: _44  and  _46
REMARK   17  A    between atoms: _46  and  _47
REMARK   18  A    between atoms: _46  and  _49
REMARK   19  A    between atoms: _49  and  _50
REMARK   20  A    between atoms: _60  and  _62
REMARK   21  A    between atoms: _62  and  _63
REMARK   22  A    between atoms: _62  and  _65
REMARK   23  A    between atoms: _65  and  _66
REMARK   24  A    between atoms: _69  and  _71
REMARK   25  A    between atoms: _71  and  _72
REMARK   26  A    between atoms: _71  and  _74
REMARK   27  A    between atoms: _74  and  _75
REMARK   28  A    between atoms: _80  and  _81
REMARK   29  A    between atoms: _83  and  _85
REMARK   30  A    between atoms: _85  and  _86
REMARK   31  A    between atoms: _88  and  _90
REMARK   32  A    between atoms: _90  and  _91
REMARK   33  A    between atoms: _90  and  _93
REMARK   34  A    between atoms: _93  and  _94
REMARK   35  A    between atoms: _99  and  _100
REMARK   36  A    between atoms: _102  and  _104
REMARK   37  A    between atoms: _104  and  _105
REMARK   38  A    between atoms: _104  and  _107
REMARK   39  A    between atoms: _107  and  _108
REMARK   40  A    between atoms: _111  and  _113
REMARK   41  A    between atoms: _113  and  _114
REMARK   42  A    between atoms: _113  and  _116
REMARK   43  A    between atoms: _116  and  _117
REMARK   44  A    between atoms: _119  and  _121
REMARK   45  A    between atoms: _121  and  _122
REMARK   46  A    between atoms: _121  and  _124
REMARK   47  A    between atoms: _124  and  _125
REMARK   48  A    between atoms: _130  and  _131
REMARK   49  A    between atoms: _133  and  _135
REMARK   50  A    between atoms: _135  and  _136
REMARK   51  A    between atoms: _135  and  _138
REMARK   52  A    between atoms: _138  and  _139
REMARK   53  A    between atoms: _141  and  _143
REMARK   54  A    between atoms: _143  and  _144
REMARK   55  A    between atoms: _143  and  _146
REMARK   56  A    between atoms: _146  and  _147
REMARK   57  A    between atoms: _152  and  _153
REMARK   58  A    between atoms: _155  and  _157
REMARK   59  A    between atoms: _157  and  _158
REMARK   60  A    between atoms: _157  and  _160
REMARK   61  A    between atoms: _160  and  _161
REMARK   62  A    between atoms: _167  and  _169
REMARK   63  A    between atoms: _169  and  _170
REMARK   64  A    between atoms: _169  and  _172
REMARK   65  A    between atoms: _172  and  _173
REMARK   66  A    between atoms: _176  and  _178
REMARK   67  A    between atoms: _178  and  _179
REMARK   68  A    between atoms: _178  and  _181
REMARK   69  A    between atoms: _181  and  _182
REMARK   70  A    between atoms: _184  and  _186
REMARK   71  A    between atoms: _186  and  _187
REMARK   72  A    between atoms: _186  and  _189
REMARK   73  A    between atoms: _189  and  _190
REMARK   74  A    between atoms: _195  and  _196
REMARK   75  A    between atoms: _198  and  _200
REMARK   76  A    between atoms: _200  and  _201
REMARK   77  A    between atoms: _200  and  _203
REMARK   78  A    between atoms: _203  and  _204
REMARK   79  A    between atoms: _204  and  _205
REMARK   80  A    between atoms: _207  and  _209
REMARK   81  A    between atoms: _209  and  _210
REMARK   82  A    between atoms: _209  and  _212
REMARK   83  A    between atoms: _212  and  _213
REMARK   84  A    between atoms: _213  and  _214
REMARK   85  A    between atoms: _217  and  _219
REMARK   86  A    between atoms: _219  and  _220
REMARK   87  A    between atoms: _219  and  _222
REMARK   88  A    between atoms: _222  and  _223
REMARK   89  A    between atoms: _228  and  _229
REMARK   90  A    between atoms: _231  and  _233
REMARK   91  A    between atoms: _233  and  _234
REMARK   92  A    between atoms: _233  and  _236
REMARK   93  A    between atoms: _236  and  _237
REMARK   94  A    between atoms: _247  and  _249
REMARK   95  A    between atoms: _249  and  _250
REMARK   96  A    between atoms: _249  and  _252
REMARK   97  A    between atoms: _252  and  _253
REMARK   98  A    between atoms: _258  and  _260
REMARK   99  A    between atoms: _260  and  _261
REMARK  100  A    between atoms: _260  and  _263
REMARK  101  A    between atoms: _263  and  _264
REMARK  102  A    between atoms: _269  and  _270
REMARK  103  A    between atoms: _272  and  _274
REMARK  104  A    between atoms: _274  and  _275
REMARK  105  A    between atoms: _274  and  _277
REMARK  106  A    between atoms: _277  and  _278
REMARK  107  A    between atoms: _283  and  _284
REMARK  108  A    between atoms: _286  and  _288
REMARK  109  A    between atoms: _288  and  _289
REMARK  110  A    between atoms: _288  and  _291
REMARK  111  A    between atoms: _291  and  _292
REMARK  112  A    between atoms: _295  and  _297
REMARK  113  A    between atoms: _297  and  _298
REMARK  114  A    between atoms: _297  and  _300
REMARK  115  A    between atoms: _300  and  _301
REMARK  116  A    between atoms: _306  and  _308
REMARK  117  A    between atoms: _308  and  _309
REMARK  118  A    between atoms: _308  and  _311
REMARK  119  A    between atoms: _311  and  _312
REMARK  120  A    between atoms: _312  and  _313
REMARK  121  A    between atoms: _318  and  _320
REMARK  122  A    between atoms: _320  and  _321
REMARK  123  A    between atoms: _320  and  _323
REMARK  124  A    between atoms: _323  and  _324
REMARK  125  A    between atoms: _334  and  _336
REMARK  126  A    between atoms: _336  and  _337
REMARK  127  A    between atoms: _336  and  _339
REMARK  128  A    between atoms: _339  and  _340
REMARK  129  A    between atoms: _342  and  _344
REMARK  130  A    between atoms: _344  and  _345
REMARK  131  A    between atoms: _344  and  _347
REMARK  132  A    between atoms: _347  and  _348
REMARK  133  A    between atoms: _354  and  _356
REMARK  134  A    between atoms: _356  and  _357
REMARK  135  A    between atoms: _356  and  _359
REMARK  136  A    between atoms: _359  and  _360
REMARK  137  A    between atoms: _366  and  _368
REMARK  138  A    between atoms: _368  and  _369
REMARK  139  A    between atoms: _368  and  _371
REMARK  140  A    between atoms: _371  and  _372
REMARK  141  A    between atoms: _375  and  _377
REMARK  142  A    between atoms: _377  and  _378
REMARK  143  A    between atoms: _377  and  _380
REMARK  144  A    between atoms: _380  and  _381
REMARK                            x       y       z     vdW  Elec       q    Type
REMARK                         _______ _______ _______ _____ _____    ______ ____
ROOT
ATOM      1  O   HOH     1      -9.102  -9.074  16.967  0.00  0.00    +0.000 OA
ENDROOT
TORSDOF 0
REMARK  Name = ../refined-set-2016/4lar/4lar_pocket.pdb
REMARK  144 active torsions:
REMARK  status: ('A' for Active; 'I' for Inactive)
REMARK    1  A    between atoms: _1  and  _3
REMARK    2  A    between atoms: _3  and  _4
REMARK    3  A    between atoms: _6  and  _8
REMARK    4  A    between atoms: _8  and  _9
REMARK    5  A    between atoms: _8  and  _11
REMARK    6  A    between atoms: _11  and  _12
REMARK    7  A    between atoms: _17  and  _18
REMARK    8  A    between atoms: _20  and  _22
REMARK    9  A    between atoms: _22  and  _23
REMARK   10  A    between atoms: _22  and  _25
REMARK   11  A    between atoms: _25  and  _26
REMARK   12  A    between atoms: _36  and  _38
REMARK   13  A    between atoms: _38  and  _39
REMARK   14  A    between atoms: _38  and  _41
REMARK   15  A    between atoms: _41  and  _42
REMARK   16  A    between atoms: _44  and  _46
REMARK   17  A    between atoms: _46  and  _47
REMARK   18  A    between atoms: _46  and  _49
REMARK   19  A    between atoms: _49  and  _50
REMARK   20  A    between atoms: _60  and  _62
REMARK   21  A    between atoms: _62  and  _63
REMARK   22  A    between atoms: _62  and  _65
REMARK   23  A    between atoms: _65  and  _66
REMARK   24  A    between atoms: _69  and  _71
REMARK   25  A    between atoms: _71  and  _72
REMARK   26  A    between atoms: _71  and  _74
REMARK   27  A    between atoms: _74  and  _75
REMARK   28  A    between atoms: _80  and  _81
REMARK   29  A    between atoms: _83  and  _85
REMARK   30  A    between atoms: _85  and  _86
REMARK   31  A    between atoms: _88  and  _90
REMARK   32  A    between atoms: _90  and  _91
REMARK   33  A    between atoms: _90  and  _93
REMARK   34  A    between atoms: _93  and  _94
REMARK   35  A    between atoms: _99  and  _100
REMARK   36  A    between atoms: _102  and  _104
REMARK   37  A    between atoms: _104  and  _105
REMARK   38  A    between atoms: _104  and  _107
REMARK   39  A    between atoms: _107  and  _108
REMARK   40  A    between atoms: _111  and  _113
REMARK   41  A    between atoms: _113  and  _114
REMARK   42  A    between atoms: _113  and  _116
REMARK   43  A    between atoms: _116  and  _117
REMARK   44  A    between atoms: _119  and  _121
REMARK   45  A    between atoms: _121  and  _122
REMARK   46  A    between atoms: _121  and  _124
REMARK   47  A    between atoms: _124  and  _125
REMARK   48  A    between atoms: _130  and  _131
REMARK   49  A    between atoms: _133  and  _135
REMARK   50  A    between atoms: _135  and  _136
REMARK   51  A    between atoms: _135  and  _138
REMARK   52  A    between atoms: _138  and  _139
REMARK   53  A    between atoms: _141  and  _143
REMARK   54  A    between atoms: _143  and  _144
REMARK   55  A    between atoms: _143  and  _146
REMARK   56  A    between atoms: _146  and  _147
REMARK   57  A    between atoms: _152  and  _153
REMARK   58  A    between atoms: _155  and  _157
REMARK   59  A    between atoms: _157  and  _158
REMARK   60  A    between atoms: _157  and  _160
REMARK   61  A    between atoms: _160  and  _161
REMARK   62  A    between atoms: _167  and  _169
REMARK   63  A    between atoms: _169  and  _170
REMARK   64  A    between atoms: _169  and  _172
REMARK   65  A    between atoms: _172  and  _173
REMARK   66  A    between atoms: _176  and  _178
REMARK   67  A    between atoms: _178  and  _179
REMARK   68  A    between atoms: _178  and  _181
REMARK   69  A    between atoms: _181  and  _182
REMARK   70  A    between atoms: _184  and  _186
REMARK   71  A    between atoms: _186  and  _187
REMARK   72  A    between atoms: _186  and  _189
REMARK   73  A    between atoms: _189  and  _190
REMARK   74  A    between atoms: _195  and  _196
REMARK   75  A    between atoms: _198  and  _200
REMARK   76  A    between atoms: _200  and  _201
REMARK   77  A    between atoms: _200  and  _203
REMARK   78  A    between atoms: _203  and  _204
REMARK   79  A    between atoms: _204  and  _205
REMARK   80  A    between atoms: _207  and  _209
REMARK   81  A    between atoms: _209  and  _210
REMARK   82  A    between atoms: _209  and  _212
REMARK   83  A    between atoms: _212  and  _213
REMARK   84  A    between atoms: _213  and  _214
REMARK   85  A    between atoms: _217  and  _219
REMARK   86  A    between atoms: _219  and  _220
REMARK   87  A    between atoms: _219  and  _222
REMARK   88  A    between atoms: _222  and  _223
REMARK   89  A    between atoms: _228  and  _229
REMARK   90  A    between atoms: _231  and  _233
REMARK   91  A    between atoms: _233  and  _234
REMARK   92  A    between atoms: _233  and  _236
REMARK   93  A    between atoms: _236  and  _237
REMARK   94  A    between atoms: _247  and  _249
REMARK   95  A    between atoms: _249  and  _250
REMARK   96  A    between atoms: _249  and  _252
REMARK   97  A    between atoms: _252  and  _253
REMARK   98  A    between atoms: _258  and  _260
REMARK   99  A    between atoms: _260  and  _261
REMARK  100  A    between atoms: _260  and  _263
REMARK  101  A    between atoms: _263  and  _264
REMARK  102  A    between atoms: _269  and  _270
REMARK  103  A    between atoms: _272  and  _274
REMARK  104  A    between atoms: _274  and  _275
REMARK  105  A    between atoms: _274  and  _277
REMARK  106  A    between atoms: _277  and  _278
REMARK  107  A    between atoms: _283  and  _284
REMARK  108  A    between atoms: _286  and  _288
REMARK  109  A    between atoms: _288  and  _289
REMARK  110  A    between atoms: _288  and  _291
REMARK  111  A    between atoms: _291  and  _292
REMARK  112  A    between atoms: _295  and  _297
REMARK  113  A    between atoms: _297  and  _298
REMARK  114  A    between atoms: _297  and  _300
REMARK  115  A    between atoms: _300  and  _301
REMARK  116  A    between atoms: _306  and  _308
REMARK  117  A    between atoms: _308  and  _309
REMARK  118  A    between atoms: _308  and  _311
REMARK  119  A    between atoms: _311  and  _312
REMARK  120  A    between atoms: _312  and  _313
REMARK  121  A    between atoms: _318  and  _320
REMARK  122  A    between atoms: _320  and  _321
REMARK  123  A    between atoms: _320  and  _323
REMARK  124  A    between atoms: _323  and  _324
REMARK  125  A    between atoms: _334  and  _336
REMARK  126  A    between atoms: _336  and  _337
REMARK  127  A    between atoms: _336  and  _339
REMARK  128  A    between atoms: _339  and  _340
REMARK  129  A    between atoms: _342  and  _344
REMARK  130  A    between atoms: _344  and  _345
REMARK  131  A    between atoms: _344  and  _347
REMARK  132  A    between atoms: _347  and  _348
REMARK  133  A    between atoms: _354  and  _356
REMARK  134  A    between atoms: _356  and  _357
REMARK  135  A    between atoms: _356  and  _359
REMARK  136  A    between atoms: _359  and  _360
REMARK  137  A    between atoms: _366  and  _368
REMARK  138  A    between atoms: _368  and  _369
REMARK  139  A    between atoms: _368  and  _371
REMARK  140  A    between atoms: _371  and  _372
REMARK  141  A    between atoms: _375  and  _377
REMARK  142  A    between atoms: _377  and  _378
REMARK  143  A    between atoms: _377  and  _380
REMARK  144  A    between atoms: _380  and  _381
REMARK                            x       y       z     vdW  Elec       q    Type
REMARK                         _______ _______ _______ _____ _____    ______ ____
ROOT
ATOM      1  O   HOH     1     -10.823  -6.147  12.849  0.00  0.00    +0.000 OA
ENDROOT
TORSDOF 0
