REMARK  Name = ../refined-set-2016/4nl1/4nl1_pocket.pdb
REMARK  129 active torsions:
REMARK  status: ('A' for Active; 'I' for Inactive)
REMARK    1  A    between atoms: _1  and  _3
REMARK    2  A    between atoms: _3  and  _4
REMARK    3  A    between atoms: _3  and  _6
REMARK    4  A    between atoms: _6  and  _7
REMARK    5  A    between atoms: _7  and  _8
REMARK    6  A    between atoms: _11  and  _13
REMARK    7  A    between atoms: _13  and  _14
REMARK    8  A    between atoms: _13  and  _16
REMARK    9  A    between atoms: _16  and  _17
REMARK   10  A    between atoms: _17  and  _18
REMARK   11  A    between atoms: _21  and  _23
REMARK   12  A    between atoms: _23  and  _24
REMARK   13  A    between atoms: _23  and  _26
REMARK   14  A    between atoms: _26  and  _27
REMARK   15  A    between atoms: _27  and  _28
REMARK   16  A    between atoms: _28  and  _29
REMARK   17  A    between atoms: _38  and  _40
REMARK   18  A    between atoms: _40  and  _41
REMARK   19  A    between atoms: _40  and  _43
REMARK   20  A    between atoms: _43  and  _44
REMARK   21  A    between atoms: _47  and  _49
REMARK   22  A    between atoms: _49  and  _50
REMARK   23  A    between atoms: _49  and  _52
REMARK   24  A    between atoms: _52  and  _53
REMARK   25  A    between atoms: _53  and  _54
REMARK   26  A    between atoms: _57  and  _59
REMARK   27  A    between atoms: _59  and  _60
REMARK   28  A    between atoms: _62  and  _64
REMARK   29  A    between atoms: _64  and  _65
REMARK   30  A    between atoms: _64  and  _67
REMARK   31  A    between atoms: _67  and  _68
REMARK   32  A    between atoms: _71  and  _73
REMARK   33  A    between atoms: _73  and  _74
REMARK   34  A    between atoms: _76  and  _78
REMARK   35  A    between atoms: _78  and  _79
REMARK   36  A    between atoms: _82  and  _84
REMARK   37  A    between atoms: _84  and  _85
REMARK   38  A    between atoms: _84  and  _87
REMARK   39  A    between atoms: _87  and  _88
REMARK   40  A    between atoms: _91  and  _93
REMARK   41  A    between atoms: _93  and  _94
REMARK   42  A    between atoms: _93  and  _96
REMARK   43  A    between atoms: _96  and  _97
REMARK   44  A    between atoms: _97  and  _98
REMARK   45  A    between atoms: _98  and  _99
REMARK   46  A    between atoms: _99  and  _100
REMARK   47  A    between atoms: _104  and  _106
REMARK   48  A    between atoms: _106  and  _107
REMARK   49  A    between atoms: _106  and  _109
REMARK   50  A    between atoms: _109  and  _110
REMARK   51  A    between atoms: _110  and  _111
REMARK   52  A    between atoms: _114  and  _116
REMARK   53  A    between atoms: _116  and  _117
REMARK   54  A    between atoms: _116  and  _119
REMARK   55  A    between atoms: _119  and  _120
REMARK   56  A    between atoms: _120  and  _121
REMARK   57  A    between atoms: _123  and  _125
REMARK   58  A    between atoms: _125  and  _126
REMARK   59  A    between atoms: _125  and  _128
REMARK   60  A    between atoms: _128  and  _129
REMARK   61  A    between atoms: _129  and  _130
REMARK   62  A    between atoms: _130  and  _131
REMARK   63  A    between atoms: _140  and  _142
REMARK   64  A    between atoms: _142  and  _143
REMARK   65  A    between atoms: _142  and  _145
REMARK   66  A    between atoms: _145  and  _146
REMARK   67  A    between atoms: _146  and  _147
REMARK   68  A    between atoms: _149  and  _151
REMARK   69  A    between atoms: _151  and  _152
REMARK   70  A    between atoms: _151  and  _154
REMARK   71  A    between atoms: _154  and  _155
REMARK   72  A    between atoms: _155  and  _156
REMARK   73  A    between atoms: _159  and  _161
REMARK   74  A    between atoms: _161  and  _162
REMARK   75  A    between atoms: _161  and  _164
REMARK   76  A    between atoms: _164  and  _165
REMARK   77  A    between atoms: _165  and  _166
REMARK   78  A    between atoms: _166  and  _167
REMARK   79  A    between atoms: _176  and  _178
REMARK   80  A    between atoms: _178  and  _179
REMARK   81  A    between atoms: _178  and  _181
REMARK   82  A    between atoms: _181  and  _182
REMARK   83  A    between atoms: _185  and  _187
REMARK   84  A    between atoms: _187  and  _188
REMARK   85  A    between atoms: _187  and  _190
REMARK   86  A    between atoms: _190  and  _191
REMARK   87  A    between atoms: _191  and  _192
REMARK   88  A    between atoms: _195  and  _197
REMARK   89  A    between atoms: _197  and  _198
REMARK   90  A    between atoms: _200  and  _202
REMARK   91  A    between atoms: _202  and  _203
REMARK   92  A    between atoms: _202  and  _205
REMARK   93  A    between atoms: _205  and  _206
REMARK   94  A    between atoms: _209  and  _211
REMARK   95  A    between atoms: _211  and  _212
REMARK   96  A    between atoms: _214  and  _216
REMARK   97  A    between atoms: _216  and  _217
REMARK   98  A    between atoms: _220  and  _222
REMARK   99  A    between atoms: _222  and  _223
REMARK  100  A    between atoms: _222  and  _225
REMARK  101  A    between atoms: _225  and  _226
REMARK  102  A    between atoms: _229  and  _231
REMARK  103  A    between atoms: _231  and  _232
REMARK  104  A    between atoms: _231  and  _234
REMARK  105  A    between atoms: _234  and  _235
REMARK  106  A    between atoms: _235  and  _236
REMARK  107  A    between atoms: _236  and  _237
REMARK  108  A    between atoms: _237  and  _238
REMARK  109  A    between atoms: _242  and  _244
REMARK  110  A    between atoms: _244  and  _245
REMARK  111  A    between atoms: _244  and  _247
REMARK  112  A    between atoms: _247  and  _248
REMARK  113  A    between atoms: _248  and  _249
REMARK  114  A    between atoms: _252  and  _254
REMARK  115  A    between atoms: _254  and  _255
REMARK  116  A    between atoms: _254  and  _257
REMARK  117  A    between atoms: _257  and  _258
REMARK  118  A    between atoms: _258  and  _259
REMARK  119  A    between atoms: _261  and  _263
REMARK  120  A    between atoms: _263  and  _264
REMARK  121  A    between atoms: _263  and  _266
REMARK  122  A    between atoms: _266  and  _267
REMARK  123  A    between atoms: _267  and  _268
REMARK  124  A    between atoms: _268  and  _269
REMARK  125  A    between atoms: _278  and  _280
REMARK  126  A    between atoms: _280  and  _281
REMARK  127  A    between atoms: _280  and  _283
REMARK  128  A    between atoms: _283  and  _284
REMARK  129  A    between atoms: _284  and  _285
REMARK                            x       y       z     vdW  Elec       q    Type
REMARK                         _______ _______ _______ _____ _____    ______ ____
ROOT
ATOM      1  CA  LEU A   4     -19.732  39.989  12.261  0.00  0.00    +0.149 C 
ENDROOT
BRANCH   1   2
ATOM      2  C   LEU A   4     -20.199  40.809  11.049  0.00  0.00    +0.241 C 
ATOM      3  N   GLU A   5     -19.990  42.126  11.116  0.00  0.00    -0.297 N 
ATOM      4  H   GLU A   5     -19.561  42.517  11.979  0.00  0.00    +0.150 HD
ATOM      5  O   LEU A   4     -20.730  40.258  10.091  0.00  0.00    -0.273 OA
BRANCH   3   6
ATOM      6  CA  GLU A   5     -20.333  43.035  10.042  0.00  0.00    +0.149 C 
BRANCH   6   7
ATOM      7  C   GLU A   5     -19.598  42.677   8.760  0.00  0.00    +0.241 C 
ATOM      8  N   GLY A   6     -18.313  42.387   8.865  0.00  0.00    -0.295 N 
ATOM      9  H   GLY A   6     -17.856  42.403   9.799  0.00  0.00    +0.150 HD
ATOM     10  O   GLU A   5     -20.183  42.676   7.694  0.00  0.00    -0.273 OA
BRANCH   8  11
ATOM     11  CA  GLY A   6     -17.526  42.044   7.679  0.00  0.00    +0.176 C 
BRANCH  11  12
ATOM     12  C   GLY A   6     -17.913  40.711   7.070  0.00  0.00    +0.243 C 
ATOM     13  N   THR A   7     -18.187  39.715   7.926  0.00  0.00    -0.295 N 
ATOM     14  H   THR A   7     -18.014  39.860   8.941  0.00  0.00    +0.150 HD
ATOM     15  O   GLY A   6     -17.949  40.583   5.845  0.00  0.00    -0.273 OA
BRANCH  13  16
ATOM     16  CA  THR A   7     -18.729  38.416   7.467  0.00  0.00    +0.176 C 
BRANCH  16  17
ATOM     17  C   THR A   7     -20.039  38.723   6.750  0.00  0.00    +0.243 C 
ATOM     18  N   GLY A   8     -20.892  39.469   7.435  0.00  0.00    -0.295 N 
ATOM     19  H   GLY A   8     -20.647  39.753   8.405  0.00  0.00    +0.150 HD
ATOM     20  O   THR A   7     -20.257  38.350   5.594  0.00  0.00    -0.273 OA
BRANCH  18  21
ATOM     21  CA  GLY A   8     -22.160  39.903   6.872  0.00  0.00    +0.176 C 
BRANCH  21  22
ATOM     22  C   GLY A   8     -22.026  40.398   5.437  0.00  0.00    +0.243 C 
ATOM     23  N   ALA A   9     -21.104  41.329   5.213  0.00  0.00    -0.298 N 
ATOM     24  H   ALA A   9     -20.490  41.640   5.993  0.00  0.00    +0.150 HD
ATOM     25  O   GLY A   8     -22.752  39.950   4.553  0.00  0.00    -0.273 OA
BRANCH  23  26
ATOM     26  CA  ALA A   9     -20.941  41.918   3.897  0.00  0.00    +0.137 C 
ATOM     27  CB  ALA A   9     -19.776  42.888   3.920  0.00  0.00    +0.030 C 
BRANCH  26  28
ATOM     28  C   ALA A   9     -20.699  40.823   2.889  0.00  0.00    +0.227 C 
ATOM     29  O   ALA A   9     -21.304  40.806   1.824  0.00  0.00    -0.286 OA
ENDBRANCH  26  28
ENDBRANCH  23  26
ENDBRANCH  21  22
ENDBRANCH  18  21
ENDBRANCH  16  17
BRANCH  16  30
ATOM     30  CB  THR A   7     -18.937  37.433   8.664  0.00  0.00    +0.137 C 
ATOM     31  CG2 THR A   7     -19.522  36.100   8.211  0.00  0.00    +0.034 C 
BRANCH  30  32
ATOM     32  OG1 THR A   7     -17.660  37.185   9.296  0.00  0.00    -0.382 OA
ATOM     33  HG1 THR A   7     -17.285  38.040   9.626  0.00  0.00    +0.210 HD
ENDBRANCH  30  32
ENDBRANCH  16  30
ENDBRANCH  13  16
ENDBRANCH  11  12
ENDBRANCH   8  11
ENDBRANCH   6   7
BRANCH   6  34
ATOM     34  CB  GLU A   5     -19.985  44.471  10.407  0.00  0.00    +0.041 C 
BRANCH  34  35
ATOM     35  CG  GLU A   5     -20.814  45.059  11.523  0.00  0.00    +0.116 C 
BRANCH  35  36
ATOM     36  CD  GLU A   5     -20.252  44.736  12.907  0.00  0.00    +0.365 C 
ATOM     37  OE2 GLU A   5     -20.798  45.261  13.896  0.00  0.00    -0.246 OA
ATOM     38  OE1 GLU A   5     -19.277  43.946  13.000  0.00  0.00    -0.246 OA
ENDBRANCH  35  36
ENDBRANCH  34  35
ENDBRANCH   6  34
ENDBRANCH   3   6
ENDBRANCH   1   2
BRANCH   1  40
ATOM     39  C   ARG A   3     -17.345  39.904  11.794  0.00  0.00    +0.241 C 
ATOM     40  N   LEU A   4     -18.351  40.283  12.566  0.00  0.00    -0.297 N 
ATOM     41  H   LEU A   4     -18.137  40.817  13.432  0.00  0.00    +0.150 HD
ATOM     42  O   ARG A   3     -17.490  39.473  10.641  0.00  0.00    -0.273 OA
BRANCH  39  43
ATOM     43  CA  ARG A   3     -15.960  40.132  12.399  0.00  0.00    +0.149 C 
BRANCH  43  45
ATOM     44  C   GLU A   2     -15.627  41.454  14.431  0.00  0.00    +0.241 C 
ATOM     45  N   ARG A   3     -15.946  40.299  13.862  0.00  0.00    -0.297 N 
ATOM     46  H   ARG A   3     -16.193  39.489  14.466  0.00  0.00    +0.150 HD
ATOM     47  O   GLU A   2     -15.462  42.475  13.784  0.00  0.00    -0.273 OA
BRANCH  44  48
ATOM     48  CA  GLU A   2     -15.449  41.472  15.968  0.00  0.00    +0.149 C 
BRANCH  48  51
ATOM     49  C   GLU A   1     -15.390  39.339  17.200  0.00  0.00    +0.238 C 
ATOM     50  O   GLU A   1     -16.551  39.452  17.575  0.00  0.00    -0.274 OA
ATOM     51  N   GLU A   2     -14.771  40.266  16.469  0.00  0.00    -0.297 N 
ATOM     52  H   GLU A   2     -13.765  40.131  16.243  0.00  0.00    +0.150 HD
BRANCH  49  53
ATOM     53  CA  GLU A   1     -14.593  38.091  17.571  0.00  0.00    +0.145 C 
BRANCH  53  54
ATOM     54  N   GLU A   1     -13.322  38.040  16.857  0.00  0.00    -0.238 NA
ATOM     55  H   GLU A   1     -12.460  38.379  17.329  0.00  0.00    +0.142 HD
ENDBRANCH  53  54
BRANCH  53  56
ATOM     56  CB  GLU A   1     -14.385  37.997  19.101  0.00  0.00    +0.038 C 
BRANCH  56  57
ATOM     57  CG  GLU A   1     -13.824  39.260  19.780  0.00  0.00    +0.116 C 
BRANCH  57  58
ATOM     58  CD  GLU A   1     -12.293  39.315  19.895  0.00  0.00    +0.365 C 
ATOM     59  OE2 GLU A   1     -11.797  40.204  20.623  0.00  0.00    -0.246 OA
ATOM     60  OE1 GLU A   1     -11.581  38.493  19.270  0.00  0.00    -0.246 OA
ENDBRANCH  57  58
ENDBRANCH  56  57
ENDBRANCH  53  56
ENDBRANCH  49  53
ENDBRANCH  48  51
BRANCH  48  61
ATOM     61  CB  GLU A   2     -14.629  42.710  16.325  0.00  0.00    +0.041 C 
BRANCH  61  62
ATOM     62  CG  GLU A   2     -14.382  42.943  17.793  0.00  0.00    +0.116 C 
BRANCH  62  63
ATOM     63  CD  GLU A   2     -15.541  43.628  18.495  0.00  0.00    +0.365 C 
ATOM     64  OE2 GLU A   2     -15.778  43.295  19.690  0.00  0.00    -0.246 OA
ATOM     65  OE1 GLU A   2     -16.194  44.507  17.876  0.00  0.00    -0.246 OA
ENDBRANCH  62  63
ENDBRANCH  61  62
ENDBRANCH  48  61
ENDBRANCH  44  48
ENDBRANCH  43  45
BRANCH  43  66
ATOM     66  CB  ARG A   3     -14.994  39.026  12.009  0.00  0.00    +0.033 C 
BRANCH  66  67
ATOM     67  CG  ARG A   3     -13.606  39.591  11.847  0.00  0.00    +0.045 C 
BRANCH  67  68
ATOM     68  CD  ARG A   3     -12.556  38.534  11.621  0.00  0.00    +0.174 C 
BRANCH  68  69
ATOM     69  NE  ARG A   3     -11.250  39.072  11.972  0.00  0.00    -0.265 N 
ATOM     70  HE  ARG A   3     -11.208  40.040  12.350  0.00  0.00    +0.259 HD
ATOM     71  CZ  ARG A   3     -10.115  38.410  11.841  0.00  0.00    +0.342 C 
ATOM     72  NH2 ARG A   3      -8.988  39.001  12.196  0.00  0.00    -0.292 N 
ATOM     73 HH21 ARG A   3      -9.005  39.971  12.571  0.00  0.00    +0.255 HD
ATOM     74 HH22 ARG A   3      -8.084  38.496  12.100  0.00  0.00    +0.255 HD
ATOM     75  NH1 ARG A   3     -10.101  37.173  11.360  0.00  0.00    -0.292 N 
ATOM     76 HH11 ARG A   3      -9.200  36.663  11.262  0.00  0.00    +0.255 HD
ATOM     77 HH12 ARG A   3     -10.991  36.713  11.081  0.00  0.00    +0.255 HD
ENDBRANCH  68  69
ENDBRANCH  67  68
ENDBRANCH  66  67
ENDBRANCH  43  66
ENDBRANCH  39  43
ENDBRANCH   1  40
BRANCH   1  78
ATOM     78  CB  LEU A   4     -20.571  40.316  13.494  0.00  0.00    +0.029 C 
BRANCH  78  79
ATOM     79  CG  LEU A   4     -21.825  39.518  13.809  0.00  0.00    +0.002 C 
ATOM     80  CD2 LEU A   4     -22.149  39.658  15.288  0.00  0.00    +0.000 C 
ATOM     81  CD1 LEU A   4     -21.656  38.049  13.484  0.00  0.00    +0.000 C 
ENDBRANCH  78  79
ENDBRANCH   1  78
TORSDOF 35
REMARK  Name = ../refined-set-2016/4nl1/4nl1_pocket.pdb
REMARK  129 active torsions:
REMARK  status: ('A' for Active; 'I' for Inactive)
REMARK    1  A    between atoms: _1  and  _3
REMARK    2  A    between atoms: _3  and  _4
REMARK    3  A    between atoms: _3  and  _6
REMARK    4  A    between atoms: _6  and  _7
REMARK    5  A    between atoms: _7  and  _8
REMARK    6  A    between atoms: _11  and  _13
REMARK    7  A    between atoms: _13  and  _14
REMARK    8  A    between atoms: _13  and  _16
REMARK    9  A    between atoms: _16  and  _17
REMARK   10  A    between atoms: _17  and  _18
REMARK   11  A    between atoms: _21  and  _23
REMARK   12  A    between atoms: _23  and  _24
REMARK   13  A    between atoms: _23  and  _26
REMARK   14  A    between atoms: _26  and  _27
REMARK   15  A    between atoms: _27  and  _28
REMARK   16  A    between atoms: _28  and  _29
REMARK   17  A    between atoms: _38  and  _40
REMARK   18  A    between atoms: _40  and  _41
REMARK   19  A    between atoms: _40  and  _43
REMARK   20  A    between atoms: _43  and  _44
REMARK   21  A    between atoms: _47  and  _49
REMARK   22  A    between atoms: _49  and  _50
REMARK   23  A    between atoms: _49  and  _52
REMARK   24  A    between atoms: _52  and  _53
REMARK   25  A    between atoms: _53  and  _54
REMARK   26  A    between atoms: _57  and  _59
REMARK   27  A    between atoms: _59  and  _60
REMARK   28  A    between atoms: _62  and  _64
REMARK   29  A    between atoms: _64  and  _65
REMARK   30  A    between atoms: _64  and  _67
REMARK   31  A    between atoms: _67  and  _68
REMARK   32  A    between atoms: _71  and  _73
REMARK   33  A    between atoms: _73  and  _74
REMARK   34  A    between atoms: _76  and  _78
REMARK   35  A    between atoms: _78  and  _79
REMARK   36  A    between atoms: _82  and  _84
REMARK   37  A    between atoms: _84  and  _85
REMARK   38  A    between atoms: _84  and  _87
REMARK   39  A    between atoms: _87  and  _88
REMARK   40  A    between atoms: _91  and  _93
REMARK   41  A    between atoms: _93  and  _94
REMARK   42  A    between atoms: _93  and  _96
REMARK   43  A    between atoms: _96  and  _97
REMARK   44  A    between atoms: _97  and  _98
REMARK   45  A    between atoms: _98  and  _99
REMARK   46  A    between atoms: _99  and  _100
REMARK   47  A    between atoms: _104  and  _106
REMARK   48  A    between atoms: _106  and  _107
REMARK   49  A    between atoms: _106  and  _109
REMARK   50  A    between atoms: _109  and  _110
REMARK   51  A    between atoms: _110  and  _111
REMARK   52  A    between atoms: _114  and  _116
REMARK   53  A    between atoms: _116  and  _117
REMARK   54  A    between atoms: _116  and  _119
REMARK   55  A    between atoms: _119  and  _120
REMARK   56  A    between atoms: _120  and  _121
REMARK   57  A    between atoms: _123  and  _125
REMARK   58  A    between atoms: _125  and  _126
REMARK   59  A    between atoms: _125  and  _128
REMARK   60  A    between atoms: _128  and  _129
REMARK   61  A    between atoms: _129  and  _130
REMARK   62  A    between atoms: _130  and  _131
REMARK   63  A    between atoms: _140  and  _142
REMARK   64  A    between atoms: _142  and  _143
REMARK   65  A    between atoms: _142  and  _145
REMARK   66  A    between atoms: _145  and  _146
REMARK   67  A    between atoms: _146  and  _147
REMARK   68  A    between atoms: _149  and  _151
REMARK   69  A    between atoms: _151  and  _152
REMARK   70  A    between atoms: _151  and  _154
REMARK   71  A    between atoms: _154  and  _155
REMARK   72  A    between atoms: _155  and  _156
REMARK   73  A    between atoms: _159  and  _161
REMARK   74  A    between atoms: _161  and  _162
REMARK   75  A    between atoms: _161  and  _164
REMARK   76  A    between atoms: _164  and  _165
REMARK   77  A    between atoms: _165  and  _166
REMARK   78  A    between atoms: _166  and  _167
REMARK   79  A    between atoms: _176  and  _178
REMARK   80  A    between atoms: _178  and  _179
REMARK   81  A    between atoms: _178  and  _181
REMARK   82  A    between atoms: _181  and  _182
REMARK   83  A    between atoms: _185  and  _187
REMARK   84  A    between atoms: _187  and  _188
REMARK   85  A    between atoms: _187  and  _190
REMARK   86  A    between atoms: _190  and  _191
REMARK   87  A    between atoms: _191  and  _192
REMARK   88  A    between atoms: _195  and  _197
REMARK   89  A    between atoms: _197  and  _198
REMARK   90  A    between atoms: _200  and  _202
REMARK   91  A    between atoms: _202  and  _203
REMARK   92  A    between atoms: _202  and  _205
REMARK   93  A    between atoms: _205  and  _206
REMARK   94  A    between atoms: _209  and  _211
REMARK   95  A    between atoms: _211  and  _212
REMARK   96  A    between atoms: _214  and  _216
REMARK   97  A    between atoms: _216  and  _217
REMARK   98  A    between atoms: _220  and  _222
REMARK   99  A    between atoms: _222  and  _223
REMARK  100  A    between atoms: _222  and  _225
REMARK  101  A    between atoms: _225  and  _226
REMARK  102  A    between atoms: _229  and  _231
REMARK  103  A    between atoms: _231  and  _232
REMARK  104  A    between atoms: _231  and  _234
REMARK  105  A    between atoms: _234  and  _235
REMARK  106  A    between atoms: _235  and  _236
REMARK  107  A    between atoms: _236  and  _237
REMARK  108  A    between atoms: _237  and  _238
REMARK  109  A    between atoms: _242  and  _244
REMARK  110  A    between atoms: _244  and  _245
REMARK  111  A    between atoms: _244  and  _247
REMARK  112  A    between atoms: _247  and  _248
REMARK  113  A    between atoms: _248  and  _249
REMARK  114  A    between atoms: _252  and  _254
REMARK  115  A    between atoms: _254  and  _255
REMARK  116  A    between atoms: _254  and  _257
REMARK  117  A    between atoms: _257  and  _258
REMARK  118  A    between atoms: _258  and  _259
REMARK  119  A    between atoms: _261  and  _263
REMARK  120  A    between atoms: _263  and  _264
REMARK  121  A    between atoms: _263  and  _266
REMARK  122  A    between atoms: _266  and  _267
REMARK  123  A    between atoms: _267  and  _268
REMARK  124  A    between atoms: _268  and  _269
REMARK  125  A    between atoms: _278  and  _280
REMARK  126  A    between atoms: _280  and  _281
REMARK  127  A    between atoms: _280  and  _283
REMARK  128  A    between atoms: _283  and  _284
REMARK  129  A    between atoms: _284  and  _285
REMARK                            x       y       z     vdW  Elec       q    Type
REMARK                         _______ _______ _______ _____ _____    ______ ____
ROOT
ATOM      1  CA  ASP A   1     -22.863  33.252  13.649  0.00  0.00    +0.144 C 
ENDROOT
BRANCH   1   2
ATOM      2  N   ASP A   1     -21.807  32.459  12.991  0.00  0.00    -0.239 NA
ATOM      3  H   ASP A   1     -21.242  32.897  12.235  0.00  0.00    +0.142 HD
ENDBRANCH   1   2
BRANCH   1   4
ATOM      4  C   ASP A   1     -24.220  33.062  13.001  0.00  0.00    +0.225 C 
ATOM      5  O   ASP A   1     -24.673  33.882  12.209  0.00  0.00    -0.287 OA
ENDBRANCH   1   4
BRANCH   1   6
ATOM      6  CB  ASP A   1     -22.457  34.719  13.653  0.00  0.00    +0.139 C 
BRANCH   6   7
ATOM      7  CG  ASP A   1     -21.121  34.937  14.331  0.00  0.00    +0.367 C 
ATOM      8  OD2 ASP A   1     -21.092  34.875  15.588  0.00  0.00    -0.246 OA
ATOM      9  OD1 ASP A   1     -20.088  35.104  13.641  0.00  0.00    -0.246 OA
ENDBRANCH   6   7
ENDBRANCH   1   6
TORSDOF 4
REMARK  Name = ../refined-set-2016/4nl1/4nl1_pocket.pdb
REMARK  129 active torsions:
REMARK  status: ('A' for Active; 'I' for Inactive)
REMARK    1  A    between atoms: _1  and  _3
REMARK    2  A    between atoms: _3  and  _4
REMARK    3  A    between atoms: _3  and  _6
REMARK    4  A    between atoms: _6  and  _7
REMARK    5  A    between atoms: _7  and  _8
REMARK    6  A    between atoms: _11  and  _13
REMARK    7  A    between atoms: _13  and  _14
REMARK    8  A    between atoms: _13  and  _16
REMARK    9  A    between atoms: _16  and  _17
REMARK   10  A    between atoms: _17  and  _18
REMARK   11  A    between atoms: _21  and  _23
REMARK   12  A    between atoms: _23  and  _24
REMARK   13  A    between atoms: _23  and  _26
REMARK   14  A    between atoms: _26  and  _27
REMARK   15  A    between atoms: _27  and  _28
REMARK   16  A    between atoms: _28  and  _29
REMARK   17  A    between atoms: _38  and  _40
REMARK   18  A    between atoms: _40  and  _41
REMARK   19  A    between atoms: _40  and  _43
REMARK   20  A    between atoms: _43  and  _44
REMARK   21  A    between atoms: _47  and  _49
REMARK   22  A    between atoms: _49  and  _50
REMARK   23  A    between atoms: _49  and  _52
REMARK   24  A    between atoms: _52  and  _53
REMARK   25  A    between atoms: _53  and  _54
REMARK   26  A    between atoms: _57  and  _59
REMARK   27  A    between atoms: _59  and  _60
REMARK   28  A    between atoms: _62  and  _64
REMARK   29  A    between atoms: _64  and  _65
REMARK   30  A    between atoms: _64  and  _67
REMARK   31  A    between atoms: _67  and  _68
REMARK   32  A    between atoms: _71  and  _73
REMARK   33  A    between atoms: _73  and  _74
REMARK   34  A    between atoms: _76  and  _78
REMARK   35  A    between atoms: _78  and  _79
REMARK   36  A    between atoms: _82  and  _84
REMARK   37  A    between atoms: _84  and  _85
REMARK   38  A    between atoms: _84  and  _87
REMARK   39  A    between atoms: _87  and  _88
REMARK   40  A    between atoms: _91  and  _93
REMARK   41  A    between atoms: _93  and  _94
REMARK   42  A    between atoms: _93  and  _96
REMARK   43  A    between atoms: _96  and  _97
REMARK   44  A    between atoms: _97  and  _98
REMARK   45  A    between atoms: _98  and  _99
REMARK   46  A    between atoms: _99  and  _100
REMARK   47  A    between atoms: _104  and  _106
REMARK   48  A    between atoms: _106  and  _107
REMARK   49  A    between atoms: _106  and  _109
REMARK   50  A    between atoms: _109  and  _110
REMARK   51  A    between atoms: _110  and  _111
REMARK   52  A    between atoms: _114  and  _116
REMARK   53  A    between atoms: _116  and  _117
REMARK   54  A    between atoms: _116  and  _119
REMARK   55  A    between atoms: _119  and  _120
REMARK   56  A    between atoms: _120  and  _121
REMARK   57  A    between atoms: _123  and  _125
REMARK   58  A    between atoms: _125  and  _126
REMARK   59  A    between atoms: _125  and  _128
REMARK   60  A    between atoms: _128  and  _129
REMARK   61  A    between atoms: _129  and  _130
REMARK   62  A    between atoms: _130  and  _131
REMARK   63  A    between atoms: _140  and  _142
REMARK   64  A    between atoms: _142  and  _143
REMARK   65  A    between atoms: _142  and  _145
REMARK   66  A    between atoms: _145  and  _146
REMARK   67  A    between atoms: _146  and  _147
REMARK   68  A    between atoms: _149  and  _151
REMARK   69  A    between atoms: _151  and  _152
REMARK   70  A    between atoms: _151  and  _154
REMARK   71  A    between atoms: _154  and  _155
REMARK   72  A    between atoms: _155  and  _156
REMARK   73  A    between atoms: _159  and  _161
REMARK   74  A    between atoms: _161  and  _162
REMARK   75  A    between atoms: _161  and  _164
REMARK   76  A    between atoms: _164  and  _165
REMARK   77  A    between atoms: _165  and  _166
REMARK   78  A    between atoms: _166  and  _167
REMARK   79  A    between atoms: _176  and  _178
REMARK   80  A    between atoms: _178  and  _179
REMARK   81  A    between atoms: _178  and  _181
REMARK   82  A    between atoms: _181  and  _182
REMARK   83  A    between atoms: _185  and  _187
REMARK   84  A    between atoms: _187  and  _188
REMARK   85  A    between atoms: _187  and  _190
REMARK   86  A    between atoms: _190  and  _191
REMARK   87  A    between atoms: _191  and  _192
REMARK   88  A    between atoms: _195  and  _197
REMARK   89  A    between atoms: _197  and  _198
REMARK   90  A    between atoms: _200  and  _202
REMARK   91  A    between atoms: _202  and  _203
REMARK   92  A    between atoms: _202  and  _205
REMARK   93  A    between atoms: _205  and  _206
REMARK   94  A    between atoms: _209  and  _211
REMARK   95  A    between atoms: _211  and  _212
REMARK   96  A    between atoms: _214  and  _216
REMARK   97  A    between atoms: _216  and  _217
REMARK   98  A    between atoms: _220  and  _222
REMARK   99  A    between atoms: _222  and  _223
REMARK  100  A    between atoms: _222  and  _225
REMARK  101  A    between atoms: _225  and  _226
REMARK  102  A    between atoms: _229  and  _231
REMARK  103  A    between atoms: _231  and  _232
REMARK  104  A    between atoms: _231  and  _234
REMARK  105  A    between atoms: _234  and  _235
REMARK  106  A    between atoms: _235  and  _236
REMARK  107  A    between atoms: _236  and  _237
REMARK  108  A    between atoms: _237  and  _238
REMARK  109  A    between atoms: _242  and  _244
REMARK  110  A    between atoms: _244  and  _245
REMARK  111  A    between atoms: _244  and  _247
REMARK  112  A    between atoms: _247  and  _248
REMARK  113  A    between atoms: _248  and  _249
REMARK  114  A    between atoms: _252  and  _254
REMARK  115  A    between atoms: _254  and  _255
REMARK  116  A    between atoms: _254  and  _257
REMARK  117  A    between atoms: _257  and  _258
REMARK  118  A    between atoms: _258  and  _259
REMARK  119  A    between atoms: _261  and  _263
REMARK  120  A    between atoms: _263  and  _264
REMARK  121  A    between atoms: _263  and  _266
REMARK  122  A    between atoms: _266  and  _267
REMARK  123  A    between atoms: _267  and  _268
REMARK  124  A    between atoms: _268  and  _269
REMARK  125  A    between atoms: _278  and  _280
REMARK  126  A    between atoms: _280  and  _281
REMARK  127  A    between atoms: _280  and  _283
REMARK  128  A    between atoms: _283  and  _284
REMARK  129  A    between atoms: _284  and  _285
REMARK                            x       y       z     vdW  Elec       q    Type
REMARK                         _______ _______ _______ _____ _____    ______ ____
ROOT
ATOM      1  CA  GLU A   2     -27.207  36.992  12.487  0.00  0.00    +0.149 C 
ENDROOT
BRANCH   1   3
ATOM      2  C   LYS A   1     -28.522  35.080  13.178  0.00  0.00    +0.238 C 
ATOM      3  N   GLU A   2     -27.386  35.757  13.217  0.00  0.00    -0.297 N 
ATOM      4  H   GLU A   2     -26.599  35.390  13.789  0.00  0.00    +0.150 HD
ATOM      5  O   LYS A   1     -29.442  35.346  12.419  0.00  0.00    -0.274 OA
BRANCH   2   6
ATOM      6  CA  LYS A   1     -28.637  33.902  14.145  0.00  0.00    +0.145 C 
BRANCH   6   7
ATOM      7  N   LYS A   1     -27.547  32.955  13.955  0.00  0.00    -0.238 NA
ATOM      8  H   LYS A   1     -27.016  32.603  14.777  0.00  0.00    +0.142 HD
ENDBRANCH   6   7
BRANCH   6   9
ATOM      9  CB  LYS A   1     -28.655  34.432  15.566  0.00  0.00    +0.026 C 
BRANCH   9  10
ATOM     10  CG  LYS A   1     -29.839  35.337  15.869  0.00  0.00    -0.000 C 
BRANCH  10  11
ATOM     11  CD  LYS A   1     -29.702  35.958  17.252  0.00  0.00    -0.024 C 
BRANCH  11  12
ATOM     12  CE  LYS A   1     -30.997  36.634  17.619  0.00  0.00    -0.086 C 
BRANCH  12  13
ATOM     13  NZ  LYS A   1     -30.947  37.203  18.981  0.00  0.00    +0.380 N 
ATOM     14  HZ1 LYS A   1     -30.768  36.442  19.667  0.00  0.00    -0.089 HD
ATOM     15  HZ2 LYS A   1     -31.856  37.660  19.198  0.00  0.00    -0.089 HD
ATOM     16  HZ3 LYS A   1     -30.183  37.906  19.034  0.00  0.00    -0.089 HD
ENDBRANCH  12  13
ENDBRANCH  11  12
ENDBRANCH  10  11
ENDBRANCH   9  10
ENDBRANCH   6   9
ENDBRANCH   2   6
ENDBRANCH   1   3
BRANCH   1  17
ATOM     17  C   GLU A   2     -27.161  36.737  10.967  0.00  0.00    +0.241 C 
ATOM     18  N   MET A   3     -26.326  35.801  10.550  0.00  0.00    -0.298 N 
ATOM     19  H   MET A   3     -25.792  35.230  11.236  0.00  0.00    +0.150 HD
ATOM     20  O   GLU A   2     -27.906  37.351  10.191  0.00  0.00    -0.273 OA
BRANCH  18  21
ATOM     21  CA  MET A   3     -26.161  35.577   9.128  0.00  0.00    +0.138 C 
BRANCH  21  22
ATOM     22  C   MET A   3     -27.443  35.075   8.512  0.00  0.00    +0.227 C 
ATOM     23  O   MET A   3     -27.785  35.416   7.380  0.00  0.00    -0.286 OA
ENDBRANCH  21  22
BRANCH  21  24
ATOM     24  CB  MET A   3     -25.033  34.605   8.879  0.00  0.00    +0.039 C 
BRANCH  24  25
ATOM     25  CG  MET A   3     -23.694  35.164   9.321  0.00  0.00    +0.060 C 
BRANCH  25  26
ATOM     26  SD  MET A   3     -23.403  36.773   8.591  0.00  0.00    -0.139 S 
ATOM     27  CE  MET A   3     -23.586  37.909   9.941  0.00  0.00    +0.069 C 
ENDBRANCH  25  26
ENDBRANCH  24  25
ENDBRANCH  21  24
ENDBRANCH  18  21
ENDBRANCH   1  17
BRANCH   1  28
ATOM     28  CB  GLU A   2     -25.944  37.713  12.953  0.00  0.00    +0.041 C 
BRANCH  28  29
ATOM     29  CG  GLU A   2     -26.013  38.198  14.405  0.00  0.00    +0.116 C 
BRANCH  29  30
ATOM     30  CD  GLU A   2     -25.626  37.132  15.437  0.00  0.00    +0.365 C 
ATOM     31  OE2 GLU A   2     -25.304  37.495  16.569  0.00  0.00    -0.246 OA
ATOM     32  OE1 GLU A   2     -25.639  35.933  15.120  0.00  0.00    -0.246 OA
ENDBRANCH  29  30
ENDBRANCH  28  29
ENDBRANCH   1  28
TORSDOF 17
REMARK  Name = ../refined-set-2016/4nl1/4nl1_pocket.pdb
REMARK  129 active torsions:
REMARK  status: ('A' for Active; 'I' for Inactive)
REMARK    1  A    between atoms: _1  and  _3
REMARK    2  A    between atoms: _3  and  _4
REMARK    3  A    between atoms: _3  and  _6
REMARK    4  A    between atoms: _6  and  _7
REMARK    5  A    between atoms: _7  and  _8
REMARK    6  A    between atoms: _11  and  _13
REMARK    7  A    between atoms: _13  and  _14
REMARK    8  A    between atoms: _13  and  _16
REMARK    9  A    between atoms: _16  and  _17
REMARK   10  A    between atoms: _17  and  _18
REMARK   11  A    between atoms: _21  and  _23
REMARK   12  A    between atoms: _23  and  _24
REMARK   13  A    between atoms: _23  and  _26
REMARK   14  A    between atoms: _26  and  _27
REMARK   15  A    between atoms: _27  and  _28
REMARK   16  A    between atoms: _28  and  _29
REMARK   17  A    between atoms: _38  and  _40
REMARK   18  A    between atoms: _40  and  _41
REMARK   19  A    between atoms: _40  and  _43
REMARK   20  A    between atoms: _43  and  _44
REMARK   21  A    between atoms: _47  and  _49
REMARK   22  A    between atoms: _49  and  _50
REMARK   23  A    between atoms: _49  and  _52
REMARK   24  A    between atoms: _52  and  _53
REMARK   25  A    between atoms: _53  and  _54
REMARK   26  A    between atoms: _57  and  _59
REMARK   27  A    between atoms: _59  and  _60
REMARK   28  A    between atoms: _62  and  _64
REMARK   29  A    between atoms: _64  and  _65
REMARK   30  A    between atoms: _64  and  _67
REMARK   31  A    between atoms: _67  and  _68
REMARK   32  A    between atoms: _71  and  _73
REMARK   33  A    between atoms: _73  and  _74
REMARK   34  A    between atoms: _76  and  _78
REMARK   35  A    between atoms: _78  and  _79
REMARK   36  A    between atoms: _82  and  _84
REMARK   37  A    between atoms: _84  and  _85
REMARK   38  A    between atoms: _84  and  _87
REMARK   39  A    between atoms: _87  and  _88
REMARK   40  A    between atoms: _91  and  _93
REMARK   41  A    between atoms: _93  and  _94
REMARK   42  A    between atoms: _93  and  _96
REMARK   43  A    between atoms: _96  and  _97
REMARK   44  A    between atoms: _97  and  _98
REMARK   45  A    between atoms: _98  and  _99
REMARK   46  A    between atoms: _99  and  _100
REMARK   47  A    between atoms: _104  and  _106
REMARK   48  A    between atoms: _106  and  _107
REMARK   49  A    between atoms: _106  and  _109
REMARK   50  A    between atoms: _109  and  _110
REMARK   51  A    between atoms: _110  and  _111
REMARK   52  A    between atoms: _114  and  _116
REMARK   53  A    between atoms: _116  and  _117
REMARK   54  A    between atoms: _116  and  _119
REMARK   55  A    between atoms: _119  and  _120
REMARK   56  A    between atoms: _120  and  _121
REMARK   57  A    between atoms: _123  and  _125
REMARK   58  A    between atoms: _125  and  _126
REMARK   59  A    between atoms: _125  and  _128
REMARK   60  A    between atoms: _128  and  _129
REMARK   61  A    between atoms: _129  and  _130
REMARK   62  A    between atoms: _130  and  _131
REMARK   63  A    between atoms: _140  and  _142
REMARK   64  A    between atoms: _142  and  _143
REMARK   65  A    between atoms: _142  and  _145
REMARK   66  A    between atoms: _145  and  _146
REMARK   67  A    between atoms: _146  and  _147
REMARK   68  A    between atoms: _149  and  _151
REMARK   69  A    between atoms: _151  and  _152
REMARK   70  A    between atoms: _151  and  _154
REMARK   71  A    between atoms: _154  and  _155
REMARK   72  A    between atoms: _155  and  _156
REMARK   73  A    between atoms: _159  and  _161
REMARK   74  A    between atoms: _161  and  _162
REMARK   75  A    between atoms: _161  and  _164
REMARK   76  A    between atoms: _164  and  _165
REMARK   77  A    between atoms: _165  and  _166
REMARK   78  A    between atoms: _166  and  _167
REMARK   79  A    between atoms: _176  and  _178
REMARK   80  A    between atoms: _178  and  _179
REMARK   81  A    between atoms: _178  and  _181
REMARK   82  A    between atoms: _181  and  _182
REMARK   83  A    between atoms: _185  and  _187
REMARK   84  A    between atoms: _187  and  _188
REMARK   85  A    between atoms: _187  and  _190
REMARK   86  A    between atoms: _190  and  _191
REMARK   87  A    between atoms: _191  and  _192
REMARK   88  A    between atoms: _195  and  _197
REMARK   89  A    between atoms: _197  and  _198
REMARK   90  A    between atoms: _200  and  _202
REMARK   91  A    between atoms: _202  and  _203
REMARK   92  A    between atoms: _202  and  _205
REMARK   93  A    between atoms: _205  and  _206
REMARK   94  A    between atoms: _209  and  _211
REMARK   95  A    between atoms: _211  and  _212
REMARK   96  A    between atoms: _214  and  _216
REMARK   97  A    between atoms: _216  and  _217
REMARK   98  A    between atoms: _220  and  _222
REMARK   99  A    between atoms: _222  and  _223
REMARK  100  A    between atoms: _222  and  _225
REMARK  101  A    between atoms: _225  and  _226
REMARK  102  A    between atoms: _229  and  _231
REMARK  103  A    between atoms: _231  and  _232
REMARK  104  A    between atoms: _231  and  _234
REMARK  105  A    between atoms: _234  and  _235
REMARK  106  A    between atoms: _235  and  _236
REMARK  107  A    between atoms: _236  and  _237
REMARK  108  A    between atoms: _237  and  _238
REMARK  109  A    between atoms: _242  and  _244
REMARK  110  A    between atoms: _244  and  _245
REMARK  111  A    between atoms: _244  and  _247
REMARK  112  A    between atoms: _247  and  _248
REMARK  113  A    between atoms: _248  and  _249
REMARK  114  A    between atoms: _252  and  _254
REMARK  115  A    between atoms: _254  and  _255
REMARK  116  A    between atoms: _254  and  _257
REMARK  117  A    between atoms: _257  and  _258
REMARK  118  A    between atoms: _258  and  _259
REMARK  119  A    between atoms: _261  and  _263
REMARK  120  A    between atoms: _263  and  _264
REMARK  121  A    between atoms: _263  and  _266
REMARK  122  A    between atoms: _266  and  _267
REMARK  123  A    between atoms: _267  and  _268
REMARK  124  A    between atoms: _268  and  _269
REMARK  125  A    between atoms: _278  and  _280
REMARK  126  A    between atoms: _280  and  _281
REMARK  127  A    between atoms: _280  and  _283
REMARK  128  A    between atoms: _283  and  _284
REMARK  129  A    between atoms: _284  and  _285
REMARK                            x       y       z     vdW  Elec       q    Type
REMARK                         _______ _______ _______ _____ _____    ______ ____
ROOT
ATOM      1  CA  ARG A   1     -31.372  37.066   9.180  0.00  0.00    +0.145 C 
ENDROOT
BRANCH   1   2
ATOM      2  C   ARG A   1     -30.936  37.876   7.947  0.00  0.00    +0.238 C 
ATOM      3  N   MET A   2     -29.635  38.072   7.769  0.00  0.00    -0.298 N 
ATOM      4  H   MET A   2     -28.957  37.711   8.470  0.00  0.00    +0.150 HD
ATOM      5  O   ARG A   1     -31.783  38.375   7.213  0.00  0.00    -0.274 OA
BRANCH   3   6
ATOM      6  CA  MET A   2     -29.152  38.788   6.601  0.00  0.00    +0.138 C 
BRANCH   6   7
ATOM      7  C   MET A   2     -29.469  38.042   5.292  0.00  0.00    +0.227 C 
ATOM      8  O   MET A   2     -29.897  38.637   4.306  0.00  0.00    -0.286 OA
ENDBRANCH   6   7
BRANCH   6   9
ATOM      9  CB  MET A   2     -27.657  39.019   6.696  0.00  0.00    +0.039 C 
BRANCH   9  10
ATOM     10  CG  MET A   2     -27.297  40.170   7.594  0.00  0.00    +0.060 C 
BRANCH  10  11
ATOM     11  SD  MET A   2     -25.619  40.690   7.265  0.00  0.00    -0.139 S 
ATOM     12  CE  MET A   2     -25.060  40.926   8.917  0.00  0.00    +0.069 C 
ENDBRANCH  10  11
ENDBRANCH   9  10
ENDBRANCH   6   9
ENDBRANCH   3   6
ENDBRANCH   1   2
BRANCH   1  13
ATOM     13  N   ARG A   1     -30.558  35.886   9.449  0.00  0.00    -0.238 NA
ATOM     14  H   ARG A   1     -30.025  35.810  10.339  0.00  0.00    +0.142 HD
ENDBRANCH   1  13
BRANCH   1  15
ATOM     15  CB  ARG A   1     -31.356  38.003  10.371  0.00  0.00    +0.030 C 
BRANCH  15  16
ATOM     16  CG  ARG A   1     -32.148  37.534  11.568  0.00  0.00    +0.045 C 
BRANCH  16  17
ATOM     17  CD  ARG A   1     -31.880  38.485  12.707  0.00  0.00    +0.174 C 
BRANCH  17  18
ATOM     18  NE  ARG A   1     -32.628  38.119  13.894  0.00  0.00    -0.265 N 
ATOM     19  CZ  ARG A   1     -32.723  38.876  14.985  0.00  0.00    +0.342 C 
ATOM     20  NH2 ARG A   1     -33.438  38.445  15.998  0.00  0.00    -0.292 N 
ATOM     21 HH21 ARG A   1     -33.523  39.024  16.858  0.00  0.00    +0.255 HD
ATOM     22 HH22 ARG A   1     -33.920  37.525  15.941  0.00  0.00    +0.255 HD
ATOM     23  NH1 ARG A   1     -32.139  40.070  15.055  0.00  0.00    -0.292 N 
ATOM     24 HH11 ARG A   1     -32.228  40.643  15.919  0.00  0.00    +0.255 HD
ATOM     25 HH12 ARG A   1     -31.594  40.430  14.246  0.00  0.00    +0.255 HD
ATOM     26  HE  ARG A   1     -33.123  37.204  13.893  0.00  0.00    +0.259 HD
ENDBRANCH  17  18
ENDBRANCH  16  17
ENDBRANCH  15  16
ENDBRANCH   1  15
TORSDOF 11
REMARK  Name = ../refined-set-2016/4nl1/4nl1_pocket.pdb
REMARK  129 active torsions:
REMARK  status: ('A' for Active; 'I' for Inactive)
REMARK    1  A    between atoms: _1  and  _3
REMARK    2  A    between atoms: _3  and  _4
REMARK    3  A    between atoms: _3  and  _6
REMARK    4  A    between atoms: _6  and  _7
REMARK    5  A    between atoms: _7  and  _8
REMARK    6  A    between atoms: _11  and  _13
REMARK    7  A    between atoms: _13  and  _14
REMARK    8  A    between atoms: _13  and  _16
REMARK    9  A    between atoms: _16  and  _17
REMARK   10  A    between atoms: _17  and  _18
REMARK   11  A    between atoms: _21  and  _23
REMARK   12  A    between atoms: _23  and  _24
REMARK   13  A    between atoms: _23  and  _26
REMARK   14  A    between atoms: _26  and  _27
REMARK   15  A    between atoms: _27  and  _28
REMARK   16  A    between atoms: _28  and  _29
REMARK   17  A    between atoms: _38  and  _40
REMARK   18  A    between atoms: _40  and  _41
REMARK   19  A    between atoms: _40  and  _43
REMARK   20  A    between atoms: _43  and  _44
REMARK   21  A    between atoms: _47  and  _49
REMARK   22  A    between atoms: _49  and  _50
REMARK   23  A    between atoms: _49  and  _52
REMARK   24  A    between atoms: _52  and  _53
REMARK   25  A    between atoms: _53  and  _54
REMARK   26  A    between atoms: _57  and  _59
REMARK   27  A    between atoms: _59  and  _60
REMARK   28  A    between atoms: _62  and  _64
REMARK   29  A    between atoms: _64  and  _65
REMARK   30  A    between atoms: _64  and  _67
REMARK   31  A    between atoms: _67  and  _68
REMARK   32  A    between atoms: _71  and  _73
REMARK   33  A    between atoms: _73  and  _74
REMARK   34  A    between atoms: _76  and  _78
REMARK   35  A    between atoms: _78  and  _79
REMARK   36  A    between atoms: _82  and  _84
REMARK   37  A    between atoms: _84  and  _85
REMARK   38  A    between atoms: _84  and  _87
REMARK   39  A    between atoms: _87  and  _88
REMARK   40  A    between atoms: _91  and  _93
REMARK   41  A    between atoms: _93  and  _94
REMARK   42  A    between atoms: _93  and  _96
REMARK   43  A    between atoms: _96  and  _97
REMARK   44  A    between atoms: _97  and  _98
REMARK   45  A    between atoms: _98  and  _99
REMARK   46  A    between atoms: _99  and  _100
REMARK   47  A    between atoms: _104  and  _106
REMARK   48  A    between atoms: _106  and  _107
REMARK   49  A    between atoms: _106  and  _109
REMARK   50  A    between atoms: _109  and  _110
REMARK   51  A    between atoms: _110  and  _111
REMARK   52  A    between atoms: _114  and  _116
REMARK   53  A    between atoms: _116  and  _117
REMARK   54  A    between atoms: _116  and  _119
REMARK   55  A    between atoms: _119  and  _120
REMARK   56  A    between atoms: _120  and  _121
REMARK   57  A    between atoms: _123  and  _125
REMARK   58  A    between atoms: _125  and  _126
REMARK   59  A    between atoms: _125  and  _128
REMARK   60  A    between atoms: _128  and  _129
REMARK   61  A    between atoms: _129  and  _130
REMARK   62  A    between atoms: _130  and  _131
REMARK   63  A    between atoms: _140  and  _142
REMARK   64  A    between atoms: _142  and  _143
REMARK   65  A    between atoms: _142  and  _145
REMARK   66  A    between atoms: _145  and  _146
REMARK   67  A    between atoms: _146  and  _147
REMARK   68  A    between atoms: _149  and  _151
REMARK   69  A    between atoms: _151  and  _152
REMARK   70  A    between atoms: _151  and  _154
REMARK   71  A    between atoms: _154  and  _155
REMARK   72  A    between atoms: _155  and  _156
REMARK   73  A    between atoms: _159  and  _161
REMARK   74  A    between atoms: _161  and  _162
REMARK   75  A    between atoms: _161  and  _164
REMARK   76  A    between atoms: _164  and  _165
REMARK   77  A    between atoms: _165  and  _166
REMARK   78  A    between atoms: _166  and  _167
REMARK   79  A    between atoms: _176  and  _178
REMARK   80  A    between atoms: _178  and  _179
REMARK   81  A    between atoms: _178  and  _181
REMARK   82  A    between atoms: _181  and  _182
REMARK   83  A    between atoms: _185  and  _187
REMARK   84  A    between atoms: _187  and  _188
REMARK   85  A    between atoms: _187  and  _190
REMARK   86  A    between atoms: _190  and  _191
REMARK   87  A    between atoms: _191  and  _192
REMARK   88  A    between atoms: _195  and  _197
REMARK   89  A    between atoms: _197  and  _198
REMARK   90  A    between atoms: _200  and  _202
REMARK   91  A    between atoms: _202  and  _203
REMARK   92  A    between atoms: _202  and  _205
REMARK   93  A    between atoms: _205  and  _206
REMARK   94  A    between atoms: _209  and  _211
REMARK   95  A    between atoms: _211  and  _212
REMARK   96  A    between atoms: _214  and  _216
REMARK   97  A    between atoms: _216  and  _217
REMARK   98  A    between atoms: _220  and  _222
REMARK   99  A    between atoms: _222  and  _223
REMARK  100  A    between atoms: _222  and  _225
REMARK  101  A    between atoms: _225  and  _226
REMARK  102  A    between atoms: _229  and  _231
REMARK  103  A    between atoms: _231  and  _232
REMARK  104  A    between atoms: _231  and  _234
REMARK  105  A    between atoms: _234  and  _235
REMARK  106  A    between atoms: _235  and  _236
REMARK  107  A    between atoms: _236  and  _237
REMARK  108  A    between atoms: _237  and  _238
REMARK  109  A    between atoms: _242  and  _244
REMARK  110  A    between atoms: _244  and  _245
REMARK  111  A    between atoms: _244  and  _247
REMARK  112  A    between atoms: _247  and  _248
REMARK  113  A    between atoms: _248  and  _249
REMARK  114  A    between atoms: _252  and  _254
REMARK  115  A    between atoms: _254  and  _255
REMARK  116  A    between atoms: _254  and  _257
REMARK  117  A    between atoms: _257  and  _258
REMARK  118  A    between atoms: _258  and  _259
REMARK  119  A    between atoms: _261  and  _263
REMARK  120  A    between atoms: _263  and  _264
REMARK  121  A    between atoms: _263  and  _266
REMARK  122  A    between atoms: _266  and  _267
REMARK  123  A    between atoms: _267  and  _268
REMARK  124  A    between atoms: _268  and  _269
REMARK  125  A    between atoms: _278  and  _280
REMARK  126  A    between atoms: _280  and  _281
REMARK  127  A    between atoms: _280  and  _283
REMARK  128  A    between atoms: _283  and  _284
REMARK  129  A    between atoms: _284  and  _285
REMARK                            x       y       z     vdW  Elec       q    Type
REMARK                         _______ _______ _______ _____ _____    ______ ____
ROOT
ATOM      1  C   LEU A   3     -29.200  44.753  11.049  0.00  0.00    +0.241 C 
ATOM      2  N   GLU A   4     -29.409  43.436  11.116  0.00  0.00    -0.297 N 
ATOM      3  H   GLU A   4     -29.838  43.045  11.979  0.00  0.00    +0.150 HD
ATOM      4  O   LEU A   3     -28.669  45.304  10.091  0.00  0.00    -0.273 OA
ENDROOT
BRANCH   2   5
ATOM      5  CA  GLU A   4     -29.066  42.527  10.042  0.00  0.00    +0.149 C 
BRANCH   5   6
ATOM      6  C   GLU A   4     -29.801  42.885   8.760  0.00  0.00    +0.241 C 
ATOM      7  N   GLY A   5     -31.086  43.175   8.865  0.00  0.00    -0.295 N 
ATOM      8  H   GLY A   5     -31.543  43.159   9.799  0.00  0.00    +0.150 HD
ATOM      9  O   GLU A   4     -29.216  42.886   7.694  0.00  0.00    -0.273 OA
BRANCH   7  10
ATOM     10  CA  GLY A   5     -31.873  43.518   7.679  0.00  0.00    +0.176 C 
BRANCH  10  11
ATOM     11  C   GLY A   5     -31.486  44.851   7.070  0.00  0.00    +0.243 C 
ATOM     12  N   THR A   6     -31.212  45.847   7.926  0.00  0.00    -0.295 N 
ATOM     13  H   THR A   6     -31.385  45.702   8.941  0.00  0.00    +0.150 HD
ATOM     14  O   GLY A   5     -31.450  44.979   5.845  0.00  0.00    -0.273 OA
BRANCH  12  15
ATOM     15  CA  THR A   6     -30.670  47.146   7.467  0.00  0.00    +0.176 C 
BRANCH  15  16
ATOM     16  C   THR A   6     -29.360  46.839   6.750  0.00  0.00    +0.243 C 
ATOM     17  N   GLY A   7     -28.507  46.093   7.435  0.00  0.00    -0.295 N 
ATOM     18  H   GLY A   7     -28.752  45.809   8.405  0.00  0.00    +0.150 HD
ATOM     19  O   THR A   6     -29.142  47.212   5.594  0.00  0.00    -0.273 OA
BRANCH  17  20
ATOM     20  CA  GLY A   7     -27.239  45.659   6.872  0.00  0.00    +0.176 C 
BRANCH  20  21
ATOM     21  C   GLY A   7     -27.373  45.164   5.437  0.00  0.00    +0.243 C 
ATOM     22  N   ALA A   8     -28.295  44.233   5.213  0.00  0.00    -0.298 N 
ATOM     23  H   ALA A   8     -28.909  43.922   5.993  0.00  0.00    +0.150 HD
ATOM     24  O   GLY A   7     -26.647  45.612   4.553  0.00  0.00    -0.273 OA
BRANCH  22  25
ATOM     25  CA  ALA A   8     -28.458  43.644   3.897  0.00  0.00    +0.137 C 
ATOM     26  CB  ALA A   8     -29.623  42.674   3.920  0.00  0.00    +0.030 C 
BRANCH  25  27
ATOM     27  C   ALA A   8     -28.700  44.739   2.889  0.00  0.00    +0.227 C 
ATOM     28  O   ALA A   8     -28.095  44.756   1.824  0.00  0.00    -0.286 OA
ENDBRANCH  25  27
ENDBRANCH  22  25
ENDBRANCH  20  21
ENDBRANCH  17  20
ENDBRANCH  15  16
BRANCH  15  29
ATOM     29  CB  THR A   6     -30.462  48.129   8.664  0.00  0.00    +0.137 C 
ATOM     30  CG2 THR A   6     -29.877  49.462   8.211  0.00  0.00    +0.034 C 
BRANCH  29  31
ATOM     31  OG1 THR A   6     -31.739  48.377   9.296  0.00  0.00    -0.382 OA
ATOM     32  HG1 THR A   6     -32.114  47.522   9.626  0.00  0.00    +0.210 HD
ENDBRANCH  29  31
ENDBRANCH  15  29
ENDBRANCH  12  15
ENDBRANCH  10  11
ENDBRANCH   7  10
ENDBRANCH   5   6
BRANCH   5  33
ATOM     33  CB  GLU A   4     -29.414  41.091  10.407  0.00  0.00    +0.041 C 
BRANCH  33  34
ATOM     34  CG  GLU A   4     -28.585  40.503  11.523  0.00  0.00    +0.116 C 
BRANCH  34  35
ATOM     35  CD  GLU A   4     -29.147  40.826  12.907  0.00  0.00    +0.365 C 
ATOM     36  OE2 GLU A   4     -28.601  40.301  13.896  0.00  0.00    -0.246 OA
ATOM     37  OE1 GLU A   4     -30.122  41.616  13.000  0.00  0.00    -0.246 OA
ENDBRANCH  34  35
ENDBRANCH  33  34
ENDBRANCH   5  33
ENDBRANCH   2   5
BRANCH   1  38
ATOM     38  CA  LEU A   3     -29.667  45.573  12.261  0.00  0.00    +0.149 C 
BRANCH  38  40
ATOM     39  C   ARG A   2     -32.054  45.658  11.794  0.00  0.00    +0.241 C 
ATOM     40  N   LEU A   3     -31.048  45.279  12.566  0.00  0.00    -0.297 N 
ATOM     41  H   LEU A   3     -31.262  44.745  13.432  0.00  0.00    +0.150 HD
ATOM     42  O   ARG A   2     -31.909  46.089  10.641  0.00  0.00    -0.273 OA
BRANCH  39  43
ATOM     43  CA  ARG A   2     -33.439  45.430  12.399  0.00  0.00    +0.149 C 
BRANCH  43  45
ATOM     44  C   GLU A   1     -33.772  44.108  14.431  0.00  0.00    +0.238 C 
ATOM     45  N   ARG A   2     -33.453  45.263  13.862  0.00  0.00    -0.297 N 
ATOM     46  H   ARG A   2     -33.206  46.073  14.466  0.00  0.00    +0.150 HD
ATOM     47  O   GLU A   1     -33.937  43.087  13.784  0.00  0.00    -0.274 OA
BRANCH  44  48
ATOM     48  CA  GLU A   1     -33.950  44.090  15.968  0.00  0.00    +0.145 C 
BRANCH  48  49
ATOM     49  N   GLU A   1     -34.628  45.296  16.469  0.00  0.00    -0.238 NA
ATOM     50  H   GLU A   1     -35.634  45.431  16.243  0.00  0.00    +0.142 HD
ENDBRANCH  48  49
BRANCH  48  51
ATOM     51  CB  GLU A   1     -34.770  42.852  16.325  0.00  0.00    +0.038 C 
BRANCH  51  52
ATOM     52  CG  GLU A   1     -35.017  42.619  17.793  0.00  0.00    +0.116 C 
BRANCH  52  53
ATOM     53  CD  GLU A   1     -33.858  41.934  18.495  0.00  0.00    +0.365 C 
ATOM     54  OE2 GLU A   1     -33.621  42.267  19.690  0.00  0.00    -0.246 OA
ATOM     55  OE1 GLU A   1     -33.205  41.055  17.876  0.00  0.00    -0.246 OA
ENDBRANCH  52  53
ENDBRANCH  51  52
ENDBRANCH  48  51
ENDBRANCH  44  48
ENDBRANCH  43  45
BRANCH  43  56
ATOM     56  CB  ARG A   2     -34.405  46.536  12.009  0.00  0.00    +0.033 C 
BRANCH  56  57
ATOM     57  CG  ARG A   2     -35.793  45.971  11.847  0.00  0.00    +0.045 C 
BRANCH  57  58
ATOM     58  CD  ARG A   2     -36.843  47.028  11.621  0.00  0.00    +0.174 C 
BRANCH  58  59
ATOM     59  NE  ARG A   2     -38.149  46.490  11.972  0.00  0.00    -0.265 N 
ATOM     60  HE  ARG A   2     -38.191  45.522  12.350  0.00  0.00    +0.259 HD
ATOM     61  CZ  ARG A   2     -39.284  47.152  11.841  0.00  0.00    +0.342 C 
ATOM     62  NH2 ARG A   2     -40.411  46.561  12.196  0.00  0.00    -0.292 N 
ATOM     63 HH21 ARG A   2     -40.394  45.591  12.571  0.00  0.00    +0.255 HD
ATOM     64 HH22 ARG A   2     -41.315  47.066  12.100  0.00  0.00    +0.255 HD
ATOM     65  NH1 ARG A   2     -39.298  48.389  11.360  0.00  0.00    -0.292 N 
ATOM     66 HH11 ARG A   2     -40.199  48.899  11.262  0.00  0.00    +0.255 HD
ATOM     67 HH12 ARG A   2     -38.408  48.849  11.081  0.00  0.00    +0.255 HD
ENDBRANCH  58  59
ENDBRANCH  57  58
ENDBRANCH  56  57
ENDBRANCH  43  56
ENDBRANCH  39  43
ENDBRANCH  38  40
BRANCH  38  68
ATOM     68  CB  LEU A   3     -28.828  45.246  13.494  0.00  0.00    +0.029 C 
BRANCH  68  69
ATOM     69  CG  LEU A   3     -27.574  46.044  13.809  0.00  0.00    +0.002 C 
ATOM     70  CD2 LEU A   3     -27.250  45.904  15.288  0.00  0.00    +0.000 C 
ATOM     71  CD1 LEU A   3     -27.743  47.513  13.484  0.00  0.00    +0.000 C 
ENDBRANCH  68  69
ENDBRANCH  38  68
ENDBRANCH   1  38
TORSDOF 30
REMARK  Name = ../refined-set-2016/4nl1/4nl1_pocket.pdb
REMARK  129 active torsions:
REMARK  status: ('A' for Active; 'I' for Inactive)
REMARK    1  A    between atoms: _1  and  _3
REMARK    2  A    between atoms: _3  and  _4
REMARK    3  A    between atoms: _3  and  _6
REMARK    4  A    between atoms: _6  and  _7
REMARK    5  A    between atoms: _7  and  _8
REMARK    6  A    between atoms: _11  and  _13
REMARK    7  A    between atoms: _13  and  _14
REMARK    8  A    between atoms: _13  and  _16
REMARK    9  A    between atoms: _16  and  _17
REMARK   10  A    between atoms: _17  and  _18
REMARK   11  A    between atoms: _21  and  _23
REMARK   12  A    between atoms: _23  and  _24
REMARK   13  A    between atoms: _23  and  _26
REMARK   14  A    between atoms: _26  and  _27
REMARK   15  A    between atoms: _27  and  _28
REMARK   16  A    between atoms: _28  and  _29
REMARK   17  A    between atoms: _38  and  _40
REMARK   18  A    between atoms: _40  and  _41
REMARK   19  A    between atoms: _40  and  _43
REMARK   20  A    between atoms: _43  and  _44
REMARK   21  A    between atoms: _47  and  _49
REMARK   22  A    between atoms: _49  and  _50
REMARK   23  A    between atoms: _49  and  _52
REMARK   24  A    between atoms: _52  and  _53
REMARK   25  A    between atoms: _53  and  _54
REMARK   26  A    between atoms: _57  and  _59
REMARK   27  A    between atoms: _59  and  _60
REMARK   28  A    between atoms: _62  and  _64
REMARK   29  A    between atoms: _64  and  _65
REMARK   30  A    between atoms: _64  and  _67
REMARK   31  A    between atoms: _67  and  _68
REMARK   32  A    between atoms: _71  and  _73
REMARK   33  A    between atoms: _73  and  _74
REMARK   34  A    between atoms: _76  and  _78
REMARK   35  A    between atoms: _78  and  _79
REMARK   36  A    between atoms: _82  and  _84
REMARK   37  A    between atoms: _84  and  _85
REMARK   38  A    between atoms: _84  and  _87
REMARK   39  A    between atoms: _87  and  _88
REMARK   40  A    between atoms: _91  and  _93
REMARK   41  A    between atoms: _93  and  _94
REMARK   42  A    between atoms: _93  and  _96
REMARK   43  A    between atoms: _96  and  _97
REMARK   44  A    between atoms: _97  and  _98
REMARK   45  A    between atoms: _98  and  _99
REMARK   46  A    between atoms: _99  and  _100
REMARK   47  A    between atoms: _104  and  _106
REMARK   48  A    between atoms: _106  and  _107
REMARK   49  A    between atoms: _106  and  _109
REMARK   50  A    between atoms: _109  and  _110
REMARK   51  A    between atoms: _110  and  _111
REMARK   52  A    between atoms: _114  and  _116
REMARK   53  A    between atoms: _116  and  _117
REMARK   54  A    between atoms: _116  and  _119
REMARK   55  A    between atoms: _119  and  _120
REMARK   56  A    between atoms: _120  and  _121
REMARK   57  A    between atoms: _123  and  _125
REMARK   58  A    between atoms: _125  and  _126
REMARK   59  A    between atoms: _125  and  _128
REMARK   60  A    between atoms: _128  and  _129
REMARK   61  A    between atoms: _129  and  _130
REMARK   62  A    between atoms: _130  and  _131
REMARK   63  A    between atoms: _140  and  _142
REMARK   64  A    between atoms: _142  and  _143
REMARK   65  A    between atoms: _142  and  _145
REMARK   66  A    between atoms: _145  and  _146
REMARK   67  A    between atoms: _146  and  _147
REMARK   68  A    between atoms: _149  and  _151
REMARK   69  A    between atoms: _151  and  _152
REMARK   70  A    between atoms: _151  and  _154
REMARK   71  A    between atoms: _154  and  _155
REMARK   72  A    between atoms: _155  and  _156
REMARK   73  A    between atoms: _159  and  _161
REMARK   74  A    between atoms: _161  and  _162
REMARK   75  A    between atoms: _161  and  _164
REMARK   76  A    between atoms: _164  and  _165
REMARK   77  A    between atoms: _165  and  _166
REMARK   78  A    between atoms: _166  and  _167
REMARK   79  A    between atoms: _176  and  _178
REMARK   80  A    between atoms: _178  and  _179
REMARK   81  A    between atoms: _178  and  _181
REMARK   82  A    between atoms: _181  and  _182
REMARK   83  A    between atoms: _185  and  _187
REMARK   84  A    between atoms: _187  and  _188
REMARK   85  A    between atoms: _187  and  _190
REMARK   86  A    between atoms: _190  and  _191
REMARK   87  A    between atoms: _191  and  _192
REMARK   88  A    between atoms: _195  and  _197
REMARK   89  A    between atoms: _197  and  _198
REMARK   90  A    between atoms: _200  and  _202
REMARK   91  A    between atoms: _202  and  _203
REMARK   92  A    between atoms: _202  and  _205
REMARK   93  A    between atoms: _205  and  _206
REMARK   94  A    between atoms: _209  and  _211
REMARK   95  A    between atoms: _211  and  _212
REMARK   96  A    between atoms: _214  and  _216
REMARK   97  A    between atoms: _216  and  _217
REMARK   98  A    between atoms: _220  and  _222
REMARK   99  A    between atoms: _222  and  _223
REMARK  100  A    between atoms: _222  and  _225
REMARK  101  A    between atoms: _225  and  _226
REMARK  102  A    between atoms: _229  and  _231
REMARK  103  A    between atoms: _231  and  _232
REMARK  104  A    between atoms: _231  and  _234
REMARK  105  A    between atoms: _234  and  _235
REMARK  106  A    between atoms: _235  and  _236
REMARK  107  A    between atoms: _236  and  _237
REMARK  108  A    between atoms: _237  and  _238
REMARK  109  A    between atoms: _242  and  _244
REMARK  110  A    between atoms: _244  and  _245
REMARK  111  A    between atoms: _244  and  _247
REMARK  112  A    between atoms: _247  and  _248
REMARK  113  A    between atoms: _248  and  _249
REMARK  114  A    between atoms: _252  and  _254
REMARK  115  A    between atoms: _254  and  _255
REMARK  116  A    between atoms: _254  and  _257
REMARK  117  A    between atoms: _257  and  _258
REMARK  118  A    between atoms: _258  and  _259
REMARK  119  A    between atoms: _261  and  _263
REMARK  120  A    between atoms: _263  and  _264
REMARK  121  A    between atoms: _263  and  _266
REMARK  122  A    between atoms: _266  and  _267
REMARK  123  A    between atoms: _267  and  _268
REMARK  124  A    between atoms: _268  and  _269
REMARK  125  A    between atoms: _278  and  _280
REMARK  126  A    between atoms: _280  and  _281
REMARK  127  A    between atoms: _280  and  _283
REMARK  128  A    between atoms: _283  and  _284
REMARK  129  A    between atoms: _284  and  _285
REMARK                            x       y       z     vdW  Elec       q    Type
REMARK                         _______ _______ _______ _____ _____    ______ ____
ROOT
ATOM      1  CA  ASP A   1     -26.536  52.310  13.649  0.00  0.00    +0.144 C 
ENDROOT
BRANCH   1   2
ATOM      2  N   ASP A   1     -27.592  53.103  12.991  0.00  0.00    -0.239 NA
ATOM      3  H   ASP A   1     -28.157  52.665  12.235  0.00  0.00    +0.142 HD
ENDBRANCH   1   2
BRANCH   1   4
ATOM      4  C   ASP A   1     -25.179  52.500  13.001  0.00  0.00    +0.225 C 
ATOM      5  O   ASP A   1     -24.726  51.680  12.209  0.00  0.00    -0.287 OA
ENDBRANCH   1   4
BRANCH   1   6
ATOM      6  CB  ASP A   1     -26.942  50.843  13.653  0.00  0.00    +0.139 C 
BRANCH   6   7
ATOM      7  CG  ASP A   1     -28.278  50.625  14.331  0.00  0.00    +0.367 C 
ATOM      8  OD2 ASP A   1     -28.307  50.687  15.588  0.00  0.00    -0.246 OA
ATOM      9  OD1 ASP A   1     -29.311  50.458  13.641  0.00  0.00    -0.246 OA
ENDBRANCH   6   7
ENDBRANCH   1   6
TORSDOF 4
REMARK  Name = ../refined-set-2016/4nl1/4nl1_pocket.pdb
REMARK  129 active torsions:
REMARK  status: ('A' for Active; 'I' for Inactive)
REMARK    1  A    between atoms: _1  and  _3
REMARK    2  A    between atoms: _3  and  _4
REMARK    3  A    between atoms: _3  and  _6
REMARK    4  A    between atoms: _6  and  _7
REMARK    5  A    between atoms: _7  and  _8
REMARK    6  A    between atoms: _11  and  _13
REMARK    7  A    between atoms: _13  and  _14
REMARK    8  A    between atoms: _13  and  _16
REMARK    9  A    between atoms: _16  and  _17
REMARK   10  A    between atoms: _17  and  _18
REMARK   11  A    between atoms: _21  and  _23
REMARK   12  A    between atoms: _23  and  _24
REMARK   13  A    between atoms: _23  and  _26
REMARK   14  A    between atoms: _26  and  _27
REMARK   15  A    between atoms: _27  and  _28
REMARK   16  A    between atoms: _28  and  _29
REMARK   17  A    between atoms: _38  and  _40
REMARK   18  A    between atoms: _40  and  _41
REMARK   19  A    between atoms: _40  and  _43
REMARK   20  A    between atoms: _43  and  _44
REMARK   21  A    between atoms: _47  and  _49
REMARK   22  A    between atoms: _49  and  _50
REMARK   23  A    between atoms: _49  and  _52
REMARK   24  A    between atoms: _52  and  _53
REMARK   25  A    between atoms: _53  and  _54
REMARK   26  A    between atoms: _57  and  _59
REMARK   27  A    between atoms: _59  and  _60
REMARK   28  A    between atoms: _62  and  _64
REMARK   29  A    between atoms: _64  and  _65
REMARK   30  A    between atoms: _64  and  _67
REMARK   31  A    between atoms: _67  and  _68
REMARK   32  A    between atoms: _71  and  _73
REMARK   33  A    between atoms: _73  and  _74
REMARK   34  A    between atoms: _76  and  _78
REMARK   35  A    between atoms: _78  and  _79
REMARK   36  A    between atoms: _82  and  _84
REMARK   37  A    between atoms: _84  and  _85
REMARK   38  A    between atoms: _84  and  _87
REMARK   39  A    between atoms: _87  and  _88
REMARK   40  A    between atoms: _91  and  _93
REMARK   41  A    between atoms: _93  and  _94
REMARK   42  A    between atoms: _93  and  _96
REMARK   43  A    between atoms: _96  and  _97
REMARK   44  A    between atoms: _97  and  _98
REMARK   45  A    between atoms: _98  and  _99
REMARK   46  A    between atoms: _99  and  _100
REMARK   47  A    between atoms: _104  and  _106
REMARK   48  A    between atoms: _106  and  _107
REMARK   49  A    between atoms: _106  and  _109
REMARK   50  A    between atoms: _109  and  _110
REMARK   51  A    between atoms: _110  and  _111
REMARK   52  A    between atoms: _114  and  _116
REMARK   53  A    between atoms: _116  and  _117
REMARK   54  A    between atoms: _116  and  _119
REMARK   55  A    between atoms: _119  and  _120
REMARK   56  A    between atoms: _120  and  _121
REMARK   57  A    between atoms: _123  and  _125
REMARK   58  A    between atoms: _125  and  _126
REMARK   59  A    between atoms: _125  and  _128
REMARK   60  A    between atoms: _128  and  _129
REMARK   61  A    between atoms: _129  and  _130
REMARK   62  A    between atoms: _130  and  _131
REMARK   63  A    between atoms: _140  and  _142
REMARK   64  A    between atoms: _142  and  _143
REMARK   65  A    between atoms: _142  and  _145
REMARK   66  A    between atoms: _145  and  _146
REMARK   67  A    between atoms: _146  and  _147
REMARK   68  A    between atoms: _149  and  _151
REMARK   69  A    between atoms: _151  and  _152
REMARK   70  A    between atoms: _151  and  _154
REMARK   71  A    between atoms: _154  and  _155
REMARK   72  A    between atoms: _155  and  _156
REMARK   73  A    between atoms: _159  and  _161
REMARK   74  A    between atoms: _161  and  _162
REMARK   75  A    between atoms: _161  and  _164
REMARK   76  A    between atoms: _164  and  _165
REMARK   77  A    between atoms: _165  and  _166
REMARK   78  A    between atoms: _166  and  _167
REMARK   79  A    between atoms: _176  and  _178
REMARK   80  A    between atoms: _178  and  _179
REMARK   81  A    between atoms: _178  and  _181
REMARK   82  A    between atoms: _181  and  _182
REMARK   83  A    between atoms: _185  and  _187
REMARK   84  A    between atoms: _187  and  _188
REMARK   85  A    between atoms: _187  and  _190
REMARK   86  A    between atoms: _190  and  _191
REMARK   87  A    between atoms: _191  and  _192
REMARK   88  A    between atoms: _195  and  _197
REMARK   89  A    between atoms: _197  and  _198
REMARK   90  A    between atoms: _200  and  _202
REMARK   91  A    between atoms: _202  and  _203
REMARK   92  A    between atoms: _202  and  _205
REMARK   93  A    between atoms: _205  and  _206
REMARK   94  A    between atoms: _209  and  _211
REMARK   95  A    between atoms: _211  and  _212
REMARK   96  A    between atoms: _214  and  _216
REMARK   97  A    between atoms: _216  and  _217
REMARK   98  A    between atoms: _220  and  _222
REMARK   99  A    between atoms: _222  and  _223
REMARK  100  A    between atoms: _222  and  _225
REMARK  101  A    between atoms: _225  and  _226
REMARK  102  A    between atoms: _229  and  _231
REMARK  103  A    between atoms: _231  and  _232
REMARK  104  A    between atoms: _231  and  _234
REMARK  105  A    between atoms: _234  and  _235
REMARK  106  A    between atoms: _235  and  _236
REMARK  107  A    between atoms: _236  and  _237
REMARK  108  A    between atoms: _237  and  _238
REMARK  109  A    between atoms: _242  and  _244
REMARK  110  A    between atoms: _244  and  _245
REMARK  111  A    between atoms: _244  and  _247
REMARK  112  A    between atoms: _247  and  _248
REMARK  113  A    between atoms: _248  and  _249
REMARK  114  A    between atoms: _252  and  _254
REMARK  115  A    between atoms: _254  and  _255
REMARK  116  A    between atoms: _254  and  _257
REMARK  117  A    between atoms: _257  and  _258
REMARK  118  A    between atoms: _258  and  _259
REMARK  119  A    between atoms: _261  and  _263
REMARK  120  A    between atoms: _263  and  _264
REMARK  121  A    between atoms: _263  and  _266
REMARK  122  A    between atoms: _266  and  _267
REMARK  123  A    between atoms: _267  and  _268
REMARK  124  A    between atoms: _268  and  _269
REMARK  125  A    between atoms: _278  and  _280
REMARK  126  A    between atoms: _280  and  _281
REMARK  127  A    between atoms: _280  and  _283
REMARK  128  A    between atoms: _283  and  _284
REMARK  129  A    between atoms: _284  and  _285
REMARK                            x       y       z     vdW  Elec       q    Type
REMARK                         _______ _______ _______ _____ _____    ______ ____
ROOT
ATOM      1  CA  GLU A   2     -22.192  48.570  12.487  0.00  0.00    +0.149 C 
ENDROOT
BRANCH   1   3
ATOM      2  C   LYS A   1     -20.877  50.482  13.178  0.00  0.00    +0.238 C 
ATOM      3  N   GLU A   2     -22.013  49.805  13.217  0.00  0.00    -0.297 N 
ATOM      4  H   GLU A   2     -22.800  50.172  13.789  0.00  0.00    +0.150 HD
ATOM      5  O   LYS A   1     -19.957  50.216  12.419  0.00  0.00    -0.274 OA
BRANCH   2   6
ATOM      6  CA  LYS A   1     -20.762  51.660  14.145  0.00  0.00    +0.145 C 
BRANCH   6   7
ATOM      7  N   LYS A   1     -21.852  52.607  13.955  0.00  0.00    -0.238 NA
ATOM      8  H   LYS A   1     -22.383  52.959  14.777  0.00  0.00    +0.142 HD
ENDBRANCH   6   7
BRANCH   6   9
ATOM      9  CB  LYS A   1     -20.744  51.130  15.566  0.00  0.00    +0.026 C 
BRANCH   9  10
ATOM     10  CG  LYS A   1     -19.560  50.225  15.869  0.00  0.00    -0.000 C 
BRANCH  10  11
ATOM     11  CD  LYS A   1     -19.697  49.604  17.252  0.00  0.00    -0.024 C 
BRANCH  11  12
ATOM     12  CE  LYS A   1     -18.402  48.928  17.619  0.00  0.00    -0.086 C 
BRANCH  12  13
ATOM     13  NZ  LYS A   1     -18.452  48.359  18.981  0.00  0.00    +0.380 N 
ATOM     14  HZ1 LYS A   1     -18.631  49.120  19.667  0.00  0.00    -0.089 HD
ATOM     15  HZ2 LYS A   1     -17.543  47.902  19.198  0.00  0.00    -0.089 HD
ATOM     16  HZ3 LYS A   1     -19.216  47.656  19.034  0.00  0.00    -0.089 HD
ENDBRANCH  12  13
ENDBRANCH  11  12
ENDBRANCH  10  11
ENDBRANCH   9  10
ENDBRANCH   6   9
ENDBRANCH   2   6
ENDBRANCH   1   3
BRANCH   1  17
ATOM     17  C   GLU A   2     -22.238  48.825  10.967  0.00  0.00    +0.241 C 
ATOM     18  N   MET A   3     -23.073  49.761  10.550  0.00  0.00    -0.298 N 
ATOM     19  H   MET A   3     -23.607  50.332  11.236  0.00  0.00    +0.150 HD
ATOM     20  O   GLU A   2     -21.493  48.211  10.191  0.00  0.00    -0.273 OA
BRANCH  18  21
ATOM     21  CA  MET A   3     -23.238  49.985   9.128  0.00  0.00    +0.138 C 
BRANCH  21  22
ATOM     22  C   MET A   3     -21.956  50.487   8.512  0.00  0.00    +0.227 C 
ATOM     23  O   MET A   3     -21.614  50.146   7.380  0.00  0.00    -0.286 OA
ENDBRANCH  21  22
BRANCH  21  24
ATOM     24  CB  MET A   3     -24.366  50.957   8.879  0.00  0.00    +0.039 C 
BRANCH  24  25
ATOM     25  CG  MET A   3     -25.705  50.398   9.321  0.00  0.00    +0.060 C 
BRANCH  25  26
ATOM     26  SD  MET A   3     -25.996  48.789   8.591  0.00  0.00    -0.139 S 
ATOM     27  CE  MET A   3     -25.813  47.653   9.941  0.00  0.00    +0.069 C 
ENDBRANCH  25  26
ENDBRANCH  24  25
ENDBRANCH  21  24
ENDBRANCH  18  21
ENDBRANCH   1  17
BRANCH   1  28
ATOM     28  CB  GLU A   2     -23.455  47.849  12.953  0.00  0.00    +0.041 C 
BRANCH  28  29
ATOM     29  CG  GLU A   2     -23.386  47.364  14.405  0.00  0.00    +0.116 C 
BRANCH  29  30
ATOM     30  CD  GLU A   2     -23.773  48.430  15.437  0.00  0.00    +0.365 C 
ATOM     31  OE2 GLU A   2     -24.095  48.067  16.569  0.00  0.00    -0.246 OA
ATOM     32  OE1 GLU A   2     -23.760  49.629  15.120  0.00  0.00    -0.246 OA
ENDBRANCH  29  30
ENDBRANCH  28  29
ENDBRANCH   1  28
TORSDOF 17
REMARK  Name = ../refined-set-2016/4nl1/4nl1_pocket.pdb
REMARK  129 active torsions:
REMARK  status: ('A' for Active; 'I' for Inactive)
REMARK    1  A    between atoms: _1  and  _3
REMARK    2  A    between atoms: _3  and  _4
REMARK    3  A    between atoms: _3  and  _6
REMARK    4  A    between atoms: _6  and  _7
REMARK    5  A    between atoms: _7  and  _8
REMARK    6  A    between atoms: _11  and  _13
REMARK    7  A    between atoms: _13  and  _14
REMARK    8  A    between atoms: _13  and  _16
REMARK    9  A    between atoms: _16  and  _17
REMARK   10  A    between atoms: _17  and  _18
REMARK   11  A    between atoms: _21  and  _23
REMARK   12  A    between atoms: _23  and  _24
REMARK   13  A    between atoms: _23  and  _26
REMARK   14  A    between atoms: _26  and  _27
REMARK   15  A    between atoms: _27  and  _28
REMARK   16  A    between atoms: _28  and  _29
REMARK   17  A    between atoms: _38  and  _40
REMARK   18  A    between atoms: _40  and  _41
REMARK   19  A    between atoms: _40  and  _43
REMARK   20  A    between atoms: _43  and  _44
REMARK   21  A    between atoms: _47  and  _49
REMARK   22  A    between atoms: _49  and  _50
REMARK   23  A    between atoms: _49  and  _52
REMARK   24  A    between atoms: _52  and  _53
REMARK   25  A    between atoms: _53  and  _54
REMARK   26  A    between atoms: _57  and  _59
REMARK   27  A    between atoms: _59  and  _60
REMARK   28  A    between atoms: _62  and  _64
REMARK   29  A    between atoms: _64  and  _65
REMARK   30  A    between atoms: _64  and  _67
REMARK   31  A    between atoms: _67  and  _68
REMARK   32  A    between atoms: _71  and  _73
REMARK   33  A    between atoms: _73  and  _74
REMARK   34  A    between atoms: _76  and  _78
REMARK   35  A    between atoms: _78  and  _79
REMARK   36  A    between atoms: _82  and  _84
REMARK   37  A    between atoms: _84  and  _85
REMARK   38  A    between atoms: _84  and  _87
REMARK   39  A    between atoms: _87  and  _88
REMARK   40  A    between atoms: _91  and  _93
REMARK   41  A    between atoms: _93  and  _94
REMARK   42  A    between atoms: _93  and  _96
REMARK   43  A    between atoms: _96  and  _97
REMARK   44  A    between atoms: _97  and  _98
REMARK   45  A    between atoms: _98  and  _99
REMARK   46  A    between atoms: _99  and  _100
REMARK   47  A    between atoms: _104  and  _106
REMARK   48  A    between atoms: _106  and  _107
REMARK   49  A    between atoms: _106  and  _109
REMARK   50  A    between atoms: _109  and  _110
REMARK   51  A    between atoms: _110  and  _111
REMARK   52  A    between atoms: _114  and  _116
REMARK   53  A    between atoms: _116  and  _117
REMARK   54  A    between atoms: _116  and  _119
REMARK   55  A    between atoms: _119  and  _120
REMARK   56  A    between atoms: _120  and  _121
REMARK   57  A    between atoms: _123  and  _125
REMARK   58  A    between atoms: _125  and  _126
REMARK   59  A    between atoms: _125  and  _128
REMARK   60  A    between atoms: _128  and  _129
REMARK   61  A    between atoms: _129  and  _130
REMARK   62  A    between atoms: _130  and  _131
REMARK   63  A    between atoms: _140  and  _142
REMARK   64  A    between atoms: _142  and  _143
REMARK   65  A    between atoms: _142  and  _145
REMARK   66  A    between atoms: _145  and  _146
REMARK   67  A    between atoms: _146  and  _147
REMARK   68  A    between atoms: _149  and  _151
REMARK   69  A    between atoms: _151  and  _152
REMARK   70  A    between atoms: _151  and  _154
REMARK   71  A    between atoms: _154  and  _155
REMARK   72  A    between atoms: _155  and  _156
REMARK   73  A    between atoms: _159  and  _161
REMARK   74  A    between atoms: _161  and  _162
REMARK   75  A    between atoms: _161  and  _164
REMARK   76  A    between atoms: _164  and  _165
REMARK   77  A    between atoms: _165  and  _166
REMARK   78  A    between atoms: _166  and  _167
REMARK   79  A    between atoms: _176  and  _178
REMARK   80  A    between atoms: _178  and  _179
REMARK   81  A    between atoms: _178  and  _181
REMARK   82  A    between atoms: _181  and  _182
REMARK   83  A    between atoms: _185  and  _187
REMARK   84  A    between atoms: _187  and  _188
REMARK   85  A    between atoms: _187  and  _190
REMARK   86  A    between atoms: _190  and  _191
REMARK   87  A    between atoms: _191  and  _192
REMARK   88  A    between atoms: _195  and  _197
REMARK   89  A    between atoms: _197  and  _198
REMARK   90  A    between atoms: _200  and  _202
REMARK   91  A    between atoms: _202  and  _203
REMARK   92  A    between atoms: _202  and  _205
REMARK   93  A    between atoms: _205  and  _206
REMARK   94  A    between atoms: _209  and  _211
REMARK   95  A    between atoms: _211  and  _212
REMARK   96  A    between atoms: _214  and  _216
REMARK   97  A    between atoms: _216  and  _217
REMARK   98  A    between atoms: _220  and  _222
REMARK   99  A    between atoms: _222  and  _223
REMARK  100  A    between atoms: _222  and  _225
REMARK  101  A    between atoms: _225  and  _226
REMARK  102  A    between atoms: _229  and  _231
REMARK  103  A    between atoms: _231  and  _232
REMARK  104  A    between atoms: _231  and  _234
REMARK  105  A    between atoms: _234  and  _235
REMARK  106  A    between atoms: _235  and  _236
REMARK  107  A    between atoms: _236  and  _237
REMARK  108  A    between atoms: _237  and  _238
REMARK  109  A    between atoms: _242  and  _244
REMARK  110  A    between atoms: _244  and  _245
REMARK  111  A    between atoms: _244  and  _247
REMARK  112  A    between atoms: _247  and  _248
REMARK  113  A    between atoms: _248  and  _249
REMARK  114  A    between atoms: _252  and  _254
REMARK  115  A    between atoms: _254  and  _255
REMARK  116  A    between atoms: _254  and  _257
REMARK  117  A    between atoms: _257  and  _258
REMARK  118  A    between atoms: _258  and  _259
REMARK  119  A    between atoms: _261  and  _263
REMARK  120  A    between atoms: _263  and  _264
REMARK  121  A    between atoms: _263  and  _266
REMARK  122  A    between atoms: _266  and  _267
REMARK  123  A    between atoms: _267  and  _268
REMARK  124  A    between atoms: _268  and  _269
REMARK  125  A    between atoms: _278  and  _280
REMARK  126  A    between atoms: _280  and  _281
REMARK  127  A    between atoms: _280  and  _283
REMARK  128  A    between atoms: _283  and  _284
REMARK  129  A    between atoms: _284  and  _285
REMARK                            x       y       z     vdW  Elec       q    Type
REMARK                         _______ _______ _______ _____ _____    ______ ____
ROOT
ATOM      1  CA  ARG A   1     -18.027  48.496   9.180  0.00  0.00    +0.145 C 
ENDROOT
BRANCH   1   2
ATOM      2  C   ARG A   1     -18.463  47.686   7.947  0.00  0.00    +0.238 C 
ATOM      3  N   MET A   2     -19.764  47.490   7.769  0.00  0.00    -0.298 N 
ATOM      4  H   MET A   2     -20.442  47.851   8.470  0.00  0.00    +0.150 HD
ATOM      5  O   ARG A   1     -17.616  47.187   7.213  0.00  0.00    -0.274 OA
BRANCH   3   6
ATOM      6  CA  MET A   2     -20.247  46.774   6.601  0.00  0.00    +0.138 C 
BRANCH   6   7
ATOM      7  C   MET A   2     -19.930  47.520   5.292  0.00  0.00    +0.227 C 
ATOM      8  O   MET A   2     -19.502  46.925   4.306  0.00  0.00    -0.286 OA
ENDBRANCH   6   7
BRANCH   6   9
ATOM      9  CB  MET A   2     -21.742  46.543   6.696  0.00  0.00    +0.039 C 
BRANCH   9  10
ATOM     10  CG  MET A   2     -22.102  45.392   7.594  0.00  0.00    +0.060 C 
BRANCH  10  11
ATOM     11  SD  MET A   2     -23.780  44.872   7.265  0.00  0.00    -0.139 S 
ATOM     12  CE  MET A   2     -24.339  44.636   8.917  0.00  0.00    +0.069 C 
ENDBRANCH  10  11
ENDBRANCH   9  10
ENDBRANCH   6   9
ENDBRANCH   3   6
ENDBRANCH   1   2
BRANCH   1  13
ATOM     13  N   ARG A   1     -18.841  49.676   9.449  0.00  0.00    -0.238 NA
ATOM     14  H   ARG A   1     -19.374  49.752  10.339  0.00  0.00    +0.142 HD
ENDBRANCH   1  13
BRANCH   1  15
ATOM     15  CB  ARG A   1     -18.043  47.559  10.371  0.00  0.00    +0.030 C 
BRANCH  15  16
ATOM     16  CG  ARG A   1     -17.251  48.028  11.568  0.00  0.00    +0.045 C 
BRANCH  16  17
ATOM     17  CD  ARG A   1     -17.519  47.077  12.707  0.00  0.00    +0.174 C 
BRANCH  17  18
ATOM     18  NE  ARG A   1     -16.771  47.443  13.894  0.00  0.00    -0.265 N 
ATOM     19  CZ  ARG A   1     -16.676  46.686  14.985  0.00  0.00    +0.342 C 
ATOM     20  NH2 ARG A   1     -15.961  47.117  15.998  0.00  0.00    -0.292 N 
ATOM     21 HH21 ARG A   1     -15.876  46.538  16.858  0.00  0.00    +0.255 HD
ATOM     22 HH22 ARG A   1     -15.479  48.037  15.941  0.00  0.00    +0.255 HD
ATOM     23  NH1 ARG A   1     -17.260  45.492  15.055  0.00  0.00    -0.292 N 
ATOM     24 HH11 ARG A   1     -17.171  44.919  15.919  0.00  0.00    +0.255 HD
ATOM     25 HH12 ARG A   1     -17.805  45.132  14.246  0.00  0.00    +0.255 HD
ATOM     26  HE  ARG A   1     -16.276  48.358  13.893  0.00  0.00    +0.259 HD
ENDBRANCH  17  18
ENDBRANCH  16  17
ENDBRANCH  15  16
ENDBRANCH   1  15
TORSDOF 11
REMARK  Name = ../refined-set-2016/4nl1/4nl1_pocket.pdb
REMARK  129 active torsions:
REMARK  status: ('A' for Active; 'I' for Inactive)
REMARK    1  A    between atoms: _1  and  _3
REMARK    2  A    between atoms: _3  and  _4
REMARK    3  A    between atoms: _3  and  _6
REMARK    4  A    between atoms: _6  and  _7
REMARK    5  A    between atoms: _7  and  _8
REMARK    6  A    between atoms: _11  and  _13
REMARK    7  A    between atoms: _13  and  _14
REMARK    8  A    between atoms: _13  and  _16
REMARK    9  A    between atoms: _16  and  _17
REMARK   10  A    between atoms: _17  and  _18
REMARK   11  A    between atoms: _21  and  _23
REMARK   12  A    between atoms: _23  and  _24
REMARK   13  A    between atoms: _23  and  _26
REMARK   14  A    between atoms: _26  and  _27
REMARK   15  A    between atoms: _27  and  _28
REMARK   16  A    between atoms: _28  and  _29
REMARK   17  A    between atoms: _38  and  _40
REMARK   18  A    between atoms: _40  and  _41
REMARK   19  A    between atoms: _40  and  _43
REMARK   20  A    between atoms: _43  and  _44
REMARK   21  A    between atoms: _47  and  _49
REMARK   22  A    between atoms: _49  and  _50
REMARK   23  A    between atoms: _49  and  _52
REMARK   24  A    between atoms: _52  and  _53
REMARK   25  A    between atoms: _53  and  _54
REMARK   26  A    between atoms: _57  and  _59
REMARK   27  A    between atoms: _59  and  _60
REMARK   28  A    between atoms: _62  and  _64
REMARK   29  A    between atoms: _64  and  _65
REMARK   30  A    between atoms: _64  and  _67
REMARK   31  A    between atoms: _67  and  _68
REMARK   32  A    between atoms: _71  and  _73
REMARK   33  A    between atoms: _73  and  _74
REMARK   34  A    between atoms: _76  and  _78
REMARK   35  A    between atoms: _78  and  _79
REMARK   36  A    between atoms: _82  and  _84
REMARK   37  A    between atoms: _84  and  _85
REMARK   38  A    between atoms: _84  and  _87
REMARK   39  A    between atoms: _87  and  _88
REMARK   40  A    between atoms: _91  and  _93
REMARK   41  A    between atoms: _93  and  _94
REMARK   42  A    between atoms: _93  and  _96
REMARK   43  A    between atoms: _96  and  _97
REMARK   44  A    between atoms: _97  and  _98
REMARK   45  A    between atoms: _98  and  _99
REMARK   46  A    between atoms: _99  and  _100
REMARK   47  A    between atoms: _104  and  _106
REMARK   48  A    between atoms: _106  and  _107
REMARK   49  A    between atoms: _106  and  _109
REMARK   50  A    between atoms: _109  and  _110
REMARK   51  A    between atoms: _110  and  _111
REMARK   52  A    between atoms: _114  and  _116
REMARK   53  A    between atoms: _116  and  _117
REMARK   54  A    between atoms: _116  and  _119
REMARK   55  A    between atoms: _119  and  _120
REMARK   56  A    between atoms: _120  and  _121
REMARK   57  A    between atoms: _123  and  _125
REMARK   58  A    between atoms: _125  and  _126
REMARK   59  A    between atoms: _125  and  _128
REMARK   60  A    between atoms: _128  and  _129
REMARK   61  A    between atoms: _129  and  _130
REMARK   62  A    between atoms: _130  and  _131
REMARK   63  A    between atoms: _140  and  _142
REMARK   64  A    between atoms: _142  and  _143
REMARK   65  A    between atoms: _142  and  _145
REMARK   66  A    between atoms: _145  and  _146
REMARK   67  A    between atoms: _146  and  _147
REMARK   68  A    between atoms: _149  and  _151
REMARK   69  A    between atoms: _151  and  _152
REMARK   70  A    between atoms: _151  and  _154
REMARK   71  A    between atoms: _154  and  _155
REMARK   72  A    between atoms: _155  and  _156
REMARK   73  A    between atoms: _159  and  _161
REMARK   74  A    between atoms: _161  and  _162
REMARK   75  A    between atoms: _161  and  _164
REMARK   76  A    between atoms: _164  and  _165
REMARK   77  A    between atoms: _165  and  _166
REMARK   78  A    between atoms: _166  and  _167
REMARK   79  A    between atoms: _176  and  _178
REMARK   80  A    between atoms: _178  and  _179
REMARK   81  A    between atoms: _178  and  _181
REMARK   82  A    between atoms: _181  and  _182
REMARK   83  A    between atoms: _185  and  _187
REMARK   84  A    between atoms: _187  and  _188
REMARK   85  A    between atoms: _187  and  _190
REMARK   86  A    between atoms: _190  and  _191
REMARK   87  A    between atoms: _191  and  _192
REMARK   88  A    between atoms: _195  and  _197
REMARK   89  A    between atoms: _197  and  _198
REMARK   90  A    between atoms: _200  and  _202
REMARK   91  A    between atoms: _202  and  _203
REMARK   92  A    between atoms: _202  and  _205
REMARK   93  A    between atoms: _205  and  _206
REMARK   94  A    between atoms: _209  and  _211
REMARK   95  A    between atoms: _211  and  _212
REMARK   96  A    between atoms: _214  and  _216
REMARK   97  A    between atoms: _216  and  _217
REMARK   98  A    between atoms: _220  and  _222
REMARK   99  A    between atoms: _222  and  _223
REMARK  100  A    between atoms: _222  and  _225
REMARK  101  A    between atoms: _225  and  _226
REMARK  102  A    between atoms: _229  and  _231
REMARK  103  A    between atoms: _231  and  _232
REMARK  104  A    between atoms: _231  and  _234
REMARK  105  A    between atoms: _234  and  _235
REMARK  106  A    between atoms: _235  and  _236
REMARK  107  A    between atoms: _236  and  _237
REMARK  108  A    between atoms: _237  and  _238
REMARK  109  A    between atoms: _242  and  _244
REMARK  110  A    between atoms: _244  and  _245
REMARK  111  A    between atoms: _244  and  _247
REMARK  112  A    between atoms: _247  and  _248
REMARK  113  A    between atoms: _248  and  _249
REMARK  114  A    between atoms: _252  and  _254
REMARK  115  A    between atoms: _254  and  _255
REMARK  116  A    between atoms: _254  and  _257
REMARK  117  A    between atoms: _257  and  _258
REMARK  118  A    between atoms: _258  and  _259
REMARK  119  A    between atoms: _261  and  _263
REMARK  120  A    between atoms: _263  and  _264
REMARK  121  A    between atoms: _263  and  _266
REMARK  122  A    between atoms: _266  and  _267
REMARK  123  A    between atoms: _267  and  _268
REMARK  124  A    between atoms: _268  and  _269
REMARK  125  A    between atoms: _278  and  _280
REMARK  126  A    between atoms: _280  and  _281
REMARK  127  A    between atoms: _280  and  _283
REMARK  128  A    between atoms: _283  and  _284
REMARK  129  A    between atoms: _284  and  _285
REMARK                            x       y       z     vdW  Elec       q    Type
REMARK                         _______ _______ _______ _____ _____    ______ ____
ROOT
ATOM      1  O   HOH     1     -17.096  43.475  11.646  0.00  0.00    +0.000 OA
ENDROOT
TORSDOF 0
REMARK  Name = ../refined-set-2016/4nl1/4nl1_pocket.pdb
REMARK  129 active torsions:
REMARK  status: ('A' for Active; 'I' for Inactive)
REMARK    1  A    between atoms: _1  and  _3
REMARK    2  A    between atoms: _3  and  _4
REMARK    3  A    between atoms: _3  and  _6
REMARK    4  A    between atoms: _6  and  _7
REMARK    5  A    between atoms: _7  and  _8
REMARK    6  A    between atoms: _11  and  _13
REMARK    7  A    between atoms: _13  and  _14
REMARK    8  A    between atoms: _13  and  _16
REMARK    9  A    between atoms: _16  and  _17
REMARK   10  A    between atoms: _17  and  _18
REMARK   11  A    between atoms: _21  and  _23
REMARK   12  A    between atoms: _23  and  _24
REMARK   13  A    between atoms: _23  and  _26
REMARK   14  A    between atoms: _26  and  _27
REMARK   15  A    between atoms: _27  and  _28
REMARK   16  A    between atoms: _28  and  _29
REMARK   17  A    between atoms: _38  and  _40
REMARK   18  A    between atoms: _40  and  _41
REMARK   19  A    between atoms: _40  and  _43
REMARK   20  A    between atoms: _43  and  _44
REMARK   21  A    between atoms: _47  and  _49
REMARK   22  A    between atoms: _49  and  _50
REMARK   23  A    between atoms: _49  and  _52
REMARK   24  A    between atoms: _52  and  _53
REMARK   25  A    between atoms: _53  and  _54
REMARK   26  A    between atoms: _57  and  _59
REMARK   27  A    between atoms: _59  and  _60
REMARK   28  A    between atoms: _62  and  _64
REMARK   29  A    between atoms: _64  and  _65
REMARK   30  A    between atoms: _64  and  _67
REMARK   31  A    between atoms: _67  and  _68
REMARK   32  A    between atoms: _71  and  _73
REMARK   33  A    between atoms: _73  and  _74
REMARK   34  A    between atoms: _76  and  _78
REMARK   35  A    between atoms: _78  and  _79
REMARK   36  A    between atoms: _82  and  _84
REMARK   37  A    between atoms: _84  and  _85
REMARK   38  A    between atoms: _84  and  _87
REMARK   39  A    between atoms: _87  and  _88
REMARK   40  A    between atoms: _91  and  _93
REMARK   41  A    between atoms: _93  and  _94
REMARK   42  A    between atoms: _93  and  _96
REMARK   43  A    between atoms: _96  and  _97
REMARK   44  A    between atoms: _97  and  _98
REMARK   45  A    between atoms: _98  and  _99
REMARK   46  A    between atoms: _99  and  _100
REMARK   47  A    between atoms: _104  and  _106
REMARK   48  A    between atoms: _106  and  _107
REMARK   49  A    between atoms: _106  and  _109
REMARK   50  A    between atoms: _109  and  _110
REMARK   51  A    between atoms: _110  and  _111
REMARK   52  A    between atoms: _114  and  _116
REMARK   53  A    between atoms: _116  and  _117
REMARK   54  A    between atoms: _116  and  _119
REMARK   55  A    between atoms: _119  and  _120
REMARK   56  A    between atoms: _120  and  _121
REMARK   57  A    between atoms: _123  and  _125
REMARK   58  A    between atoms: _125  and  _126
REMARK   59  A    between atoms: _125  and  _128
REMARK   60  A    between atoms: _128  and  _129
REMARK   61  A    between atoms: _129  and  _130
REMARK   62  A    between atoms: _130  and  _131
REMARK   63  A    between atoms: _140  and  _142
REMARK   64  A    between atoms: _142  and  _143
REMARK   65  A    between atoms: _142  and  _145
REMARK   66  A    between atoms: _145  and  _146
REMARK   67  A    between atoms: _146  and  _147
REMARK   68  A    between atoms: _149  and  _151
REMARK   69  A    between atoms: _151  and  _152
REMARK   70  A    between atoms: _151  and  _154
REMARK   71  A    between atoms: _154  and  _155
REMARK   72  A    between atoms: _155  and  _156
REMARK   73  A    between atoms: _159  and  _161
REMARK   74  A    between atoms: _161  and  _162
REMARK   75  A    between atoms: _161  and  _164
REMARK   76  A    between atoms: _164  and  _165
REMARK   77  A    between atoms: _165  and  _166
REMARK   78  A    between atoms: _166  and  _167
REMARK   79  A    between atoms: _176  and  _178
REMARK   80  A    between atoms: _178  and  _179
REMARK   81  A    between atoms: _178  and  _181
REMARK   82  A    between atoms: _181  and  _182
REMARK   83  A    between atoms: _185  and  _187
REMARK   84  A    between atoms: _187  and  _188
REMARK   85  A    between atoms: _187  and  _190
REMARK   86  A    between atoms: _190  and  _191
REMARK   87  A    between atoms: _191  and  _192
REMARK   88  A    between atoms: _195  and  _197
REMARK   89  A    between atoms: _197  and  _198
REMARK   90  A    between atoms: _200  and  _202
REMARK   91  A    between atoms: _202  and  _203
REMARK   92  A    between atoms: _202  and  _205
REMARK   93  A    between atoms: _205  and  _206
REMARK   94  A    between atoms: _209  and  _211
REMARK   95  A    between atoms: _211  and  _212
REMARK   96  A    between atoms: _214  and  _216
REMARK   97  A    between atoms: _216  and  _217
REMARK   98  A    between atoms: _220  and  _222
REMARK   99  A    between atoms: _222  and  _223
REMARK  100  A    between atoms: _222  and  _225
REMARK  101  A    between atoms: _225  and  _226
REMARK  102  A    between atoms: _229  and  _231
REMARK  103  A    between atoms: _231  and  _232
REMARK  104  A    between atoms: _231  and  _234
REMARK  105  A    between atoms: _234  and  _235
REMARK  106  A    between atoms: _235  and  _236
REMARK  107  A    between atoms: _236  and  _237
REMARK  108  A    between atoms: _237  and  _238
REMARK  109  A    between atoms: _242  and  _244
REMARK  110  A    between atoms: _244  and  _245
REMARK  111  A    between atoms: _244  and  _247
REMARK  112  A    between atoms: _247  and  _248
REMARK  113  A    between atoms: _248  and  _249
REMARK  114  A    between atoms: _252  and  _254
REMARK  115  A    between atoms: _254  and  _255
REMARK  116  A    between atoms: _254  and  _257
REMARK  117  A    between atoms: _257  and  _258
REMARK  118  A    between atoms: _258  and  _259
REMARK  119  A    between atoms: _261  and  _263
REMARK  120  A    between atoms: _263  and  _264
REMARK  121  A    between atoms: _263  and  _266
REMARK  122  A    between atoms: _266  and  _267
REMARK  123  A    between atoms: _267  and  _268
REMARK  124  A    between atoms: _268  and  _269
REMARK  125  A    between atoms: _278  and  _280
REMARK  126  A    between atoms: _280  and  _281
REMARK  127  A    between atoms: _280  and  _283
REMARK  128  A    between atoms: _283  and  _284
REMARK  129  A    between atoms: _284  and  _285
REMARK                            x       y       z     vdW  Elec       q    Type
REMARK                         _______ _______ _______ _____ _____    ______ ____
ROOT
ATOM      1  O   HOH     1     -32.303  42.087  11.646  0.00  0.00    +0.000 OA
ENDROOT
TORSDOF 0
