REMARK  Name = ../refined-set-2016/3f7h/3f7h_pocket.pdb
REMARK  127 active torsions:
REMARK  status: ('A' for Active; 'I' for Inactive)
REMARK    1  A    between atoms: _1  and  _3
REMARK    2  A    between atoms: _3  and  _4
REMARK    3  A    between atoms: _3  and  _6
REMARK    4  A    between atoms: _9  and  _11
REMARK    5  A    between atoms: _11  and  _12
REMARK    6  A    between atoms: _11  and  _14
REMARK    7  A    between atoms: _14  and  _15
REMARK    8  A    between atoms: _18  and  _20
REMARK    9  A    between atoms: _20  and  _21
REMARK   10  A    between atoms: _20  and  _23
REMARK   11  A    between atoms: _23  and  _24
REMARK   12  A    between atoms: _30  and  _32
REMARK   13  A    between atoms: _32  and  _33
REMARK   14  A    between atoms: _32  and  _35
REMARK   15  A    between atoms: _35  and  _36
REMARK   16  A    between atoms: _42  and  _44
REMARK   17  A    between atoms: _44  and  _45
REMARK   18  A    between atoms: _44  and  _47
REMARK   19  A    between atoms: _47  and  _48
REMARK   20  A    between atoms: _53  and  _55
REMARK   21  A    between atoms: _55  and  _56
REMARK   22  A    between atoms: _55  and  _58
REMARK   23  A    between atoms: _58  and  _59
REMARK   24  A    between atoms: _62  and  _64
REMARK   25  A    between atoms: _64  and  _65
REMARK   26  A    between atoms: _64  and  _67
REMARK   27  A    between atoms: _67  and  _68
REMARK   28  A    between atoms: _73  and  _75
REMARK   29  A    between atoms: _75  and  _76
REMARK   30  A    between atoms: _75  and  _78
REMARK   31  A    between atoms: _78  and  _79
REMARK   32  A    between atoms: _79  and  _80
REMARK   33  A    between atoms: _85  and  _87
REMARK   34  A    between atoms: _87  and  _88
REMARK   35  A    between atoms: _87  and  _90
REMARK   36  A    between atoms: _90  and  _91
REMARK   37  A    between atoms: _94  and  _96
REMARK   38  A    between atoms: _96  and  _97
REMARK   39  A    between atoms: _96  and  _99
REMARK   40  A    between atoms: _99  and  _100
REMARK   41  A    between atoms: _100  and  _101
REMARK   42  A    between atoms: _101  and  _102
REMARK   43  A    between atoms: _102  and  _103
REMARK   44  A    between atoms: _107  and  _109
REMARK   45  A    between atoms: _109  and  _110
REMARK   46  A    between atoms: _109  and  _112
REMARK   47  A    between atoms: _115  and  _117
REMARK   48  A    between atoms: _117  and  _118
REMARK   49  A    between atoms: _117  and  _120
REMARK   50  A    between atoms: _120  and  _121
REMARK   51  A    between atoms: _121  and  _122
REMARK   52  A    between atoms: _122  and  _123
REMARK   53  A    between atoms: _132  and  _134
REMARK   54  A    between atoms: _134  and  _135
REMARK   55  A    between atoms: _134  and  _137
REMARK   56  A    between atoms: _139  and  _141
REMARK   57  A    between atoms: _141  and  _142
REMARK   58  A    between atoms: _141  and  _144
REMARK   59  A    between atoms: _144  and  _145
REMARK   60  A    between atoms: _150  and  _151
REMARK   61  A    between atoms: _153  and  _155
REMARK   62  A    between atoms: _155  and  _156
REMARK   63  A    between atoms: _158  and  _160
REMARK   64  A    between atoms: _160  and  _161
REMARK   65  A    between atoms: _163  and  _165
REMARK   66  A    between atoms: _165  and  _166
REMARK   67  A    between atoms: _165  and  _168
REMARK   68  A    between atoms: _168  and  _169
REMARK   69  A    between atoms: _172  and  _174
REMARK   70  A    between atoms: _174  and  _175
REMARK   71  A    between atoms: _174  and  _177
REMARK   72  A    between atoms: _177  and  _178
REMARK   73  A    between atoms: _178  and  _179
REMARK   74  A    between atoms: _184  and  _186
REMARK   75  A    between atoms: _186  and  _187
REMARK   76  A    between atoms: _186  and  _189
REMARK   77  A    between atoms: _189  and  _190
REMARK   78  A    between atoms: _192  and  _194
REMARK   79  A    between atoms: _194  and  _195
REMARK   80  A    between atoms: _194  and  _197
REMARK   81  A    between atoms: _197  and  _198
REMARK   82  A    between atoms: _208  and  _210
REMARK   83  A    between atoms: _210  and  _211
REMARK   84  A    between atoms: _210  and  _213
REMARK   85  A    between atoms: _213  and  _214
REMARK   86  A    between atoms: _214  and  _215
REMARK   87  A    between atoms: _215  and  _216
REMARK   88  A    between atoms: _216  and  _217
REMARK   89  A    between atoms: _221  and  _223
REMARK   90  A    between atoms: _223  and  _224
REMARK   91  A    between atoms: _223  and  _226
REMARK   92  A    between atoms: _226  and  _227
REMARK   93  A    between atoms: _227  and  _228
REMARK   94  A    between atoms: _228  and  _229
REMARK   95  A    between atoms: _238  and  _240
REMARK   96  A    between atoms: _240  and  _241
REMARK   97  A    between atoms: _240  and  _243
REMARK   98  A    between atoms: _243  and  _244
REMARK   99  A    between atoms: _247  and  _249
REMARK  100  A    between atoms: _249  and  _250
REMARK  101  A    between atoms: _249  and  _252
REMARK  102  A    between atoms: _252  and  _253
REMARK  103  A    between atoms: _257  and  _258
REMARK  104  A    between atoms: _263  and  _265
REMARK  105  A    between atoms: _265  and  _266
REMARK  106  A    between atoms: _265  and  _268
REMARK  107  A    between atoms: _268  and  _269
REMARK  108  A    between atoms: _269  and  _270
REMARK  109  A    between atoms: _273  and  _275
REMARK  110  A    between atoms: _275  and  _276
REMARK  111  A    between atoms: _275  and  _278
REMARK  112  A    between atoms: _278  and  _279
REMARK  113  A    between atoms: _284  and  _286
REMARK  114  A    between atoms: _286  and  _287
REMARK  115  A    between atoms: _286  and  _289
REMARK  116  A    between atoms: _289  and  _290
REMARK  117  A    between atoms: _290  and  _291
REMARK  118  A    between atoms: _291  and  _292
REMARK  119  A    between atoms: _292  and  _293
REMARK  120  A    between atoms: _297  and  _299
REMARK  121  A    between atoms: _299  and  _300
REMARK  122  A    between atoms: _299  and  _302
REMARK  123  A    between atoms: _302  and  _303
REMARK  124  A    between atoms: _313  and  _315
REMARK  125  A    between atoms: _315  and  _316
REMARK  126  A    between atoms: _315  and  _318
REMARK  127  A    between atoms: _318  and  _319
REMARK                            x       y       z     vdW  Elec       q    Type
REMARK                         _______ _______ _______ _____ _____    ______ ____
ROOT
ATOM      1  CA  VAL A   1      90.717  59.660  24.203  0.00  0.00    +0.133 C 
ENDROOT
BRANCH   1   2
ATOM      2  CB  VAL A   1      89.489  59.940  23.286  0.00  0.00    +0.023 C 
ATOM      3  CG2 VAL A   1      89.409  61.435  22.949  0.00  0.00    +0.002 C 
ATOM      4  CG1 VAL A   1      89.547  59.115  22.003  0.00  0.00    +0.002 C 
ENDBRANCH   1   2
BRANCH   1   5
ATOM      5  N   VAL A   1      90.935  58.228  24.442  0.00  0.00    -0.239 NA
ATOM      6  H   VAL A   1      90.434  57.776  25.233  0.00  0.00    +0.142 HD
ENDBRANCH   1   5
BRANCH   1   7
ATOM      7  C   VAL A   1      90.495  60.325  25.557  0.00  0.00    +0.224 C 
ATOM      8  O   VAL A   1      89.410  60.230  26.119  0.00  0.00    -0.287 OA
ENDBRANCH   1   7
TORSDOF 3
REMARK  Name = ../refined-set-2016/3f7h/3f7h_pocket.pdb
REMARK  127 active torsions:
REMARK  status: ('A' for Active; 'I' for Inactive)
REMARK    1  A    between atoms: _1  and  _3
REMARK    2  A    between atoms: _3  and  _4
REMARK    3  A    between atoms: _3  and  _6
REMARK    4  A    between atoms: _9  and  _11
REMARK    5  A    between atoms: _11  and  _12
REMARK    6  A    between atoms: _11  and  _14
REMARK    7  A    between atoms: _14  and  _15
REMARK    8  A    between atoms: _18  and  _20
REMARK    9  A    between atoms: _20  and  _21
REMARK   10  A    between atoms: _20  and  _23
REMARK   11  A    between atoms: _23  and  _24
REMARK   12  A    between atoms: _30  and  _32
REMARK   13  A    between atoms: _32  and  _33
REMARK   14  A    between atoms: _32  and  _35
REMARK   15  A    between atoms: _35  and  _36
REMARK   16  A    between atoms: _42  and  _44
REMARK   17  A    between atoms: _44  and  _45
REMARK   18  A    between atoms: _44  and  _47
REMARK   19  A    between atoms: _47  and  _48
REMARK   20  A    between atoms: _53  and  _55
REMARK   21  A    between atoms: _55  and  _56
REMARK   22  A    between atoms: _55  and  _58
REMARK   23  A    between atoms: _58  and  _59
REMARK   24  A    between atoms: _62  and  _64
REMARK   25  A    between atoms: _64  and  _65
REMARK   26  A    between atoms: _64  and  _67
REMARK   27  A    between atoms: _67  and  _68
REMARK   28  A    between atoms: _73  and  _75
REMARK   29  A    between atoms: _75  and  _76
REMARK   30  A    between atoms: _75  and  _78
REMARK   31  A    between atoms: _78  and  _79
REMARK   32  A    between atoms: _79  and  _80
REMARK   33  A    between atoms: _85  and  _87
REMARK   34  A    between atoms: _87  and  _88
REMARK   35  A    between atoms: _87  and  _90
REMARK   36  A    between atoms: _90  and  _91
REMARK   37  A    between atoms: _94  and  _96
REMARK   38  A    between atoms: _96  and  _97
REMARK   39  A    between atoms: _96  and  _99
REMARK   40  A    between atoms: _99  and  _100
REMARK   41  A    between atoms: _100  and  _101
REMARK   42  A    between atoms: _101  and  _102
REMARK   43  A    between atoms: _102  and  _103
REMARK   44  A    between atoms: _107  and  _109
REMARK   45  A    between atoms: _109  and  _110
REMARK   46  A    between atoms: _109  and  _112
REMARK   47  A    between atoms: _115  and  _117
REMARK   48  A    between atoms: _117  and  _118
REMARK   49  A    between atoms: _117  and  _120
REMARK   50  A    between atoms: _120  and  _121
REMARK   51  A    between atoms: _121  and  _122
REMARK   52  A    between atoms: _122  and  _123
REMARK   53  A    between atoms: _132  and  _134
REMARK   54  A    between atoms: _134  and  _135
REMARK   55  A    between atoms: _134  and  _137
REMARK   56  A    between atoms: _139  and  _141
REMARK   57  A    between atoms: _141  and  _142
REMARK   58  A    between atoms: _141  and  _144
REMARK   59  A    between atoms: _144  and  _145
REMARK   60  A    between atoms: _150  and  _151
REMARK   61  A    between atoms: _153  and  _155
REMARK   62  A    between atoms: _155  and  _156
REMARK   63  A    between atoms: _158  and  _160
REMARK   64  A    between atoms: _160  and  _161
REMARK   65  A    between atoms: _163  and  _165
REMARK   66  A    between atoms: _165  and  _166
REMARK   67  A    between atoms: _165  and  _168
REMARK   68  A    between atoms: _168  and  _169
REMARK   69  A    between atoms: _172  and  _174
REMARK   70  A    between atoms: _174  and  _175
REMARK   71  A    between atoms: _174  and  _177
REMARK   72  A    between atoms: _177  and  _178
REMARK   73  A    between atoms: _178  and  _179
REMARK   74  A    between atoms: _184  and  _186
REMARK   75  A    between atoms: _186  and  _187
REMARK   76  A    between atoms: _186  and  _189
REMARK   77  A    between atoms: _189  and  _190
REMARK   78  A    between atoms: _192  and  _194
REMARK   79  A    between atoms: _194  and  _195
REMARK   80  A    between atoms: _194  and  _197
REMARK   81  A    between atoms: _197  and  _198
REMARK   82  A    between atoms: _208  and  _210
REMARK   83  A    between atoms: _210  and  _211
REMARK   84  A    between atoms: _210  and  _213
REMARK   85  A    between atoms: _213  and  _214
REMARK   86  A    between atoms: _214  and  _215
REMARK   87  A    between atoms: _215  and  _216
REMARK   88  A    between atoms: _216  and  _217
REMARK   89  A    between atoms: _221  and  _223
REMARK   90  A    between atoms: _223  and  _224
REMARK   91  A    between atoms: _223  and  _226
REMARK   92  A    between atoms: _226  and  _227
REMARK   93  A    between atoms: _227  and  _228
REMARK   94  A    between atoms: _228  and  _229
REMARK   95  A    between atoms: _238  and  _240
REMARK   96  A    between atoms: _240  and  _241
REMARK   97  A    between atoms: _240  and  _243
REMARK   98  A    between atoms: _243  and  _244
REMARK   99  A    between atoms: _247  and  _249
REMARK  100  A    between atoms: _249  and  _250
REMARK  101  A    between atoms: _249  and  _252
REMARK  102  A    between atoms: _252  and  _253
REMARK  103  A    between atoms: _257  and  _258
REMARK  104  A    between atoms: _263  and  _265
REMARK  105  A    between atoms: _265  and  _266
REMARK  106  A    between atoms: _265  and  _268
REMARK  107  A    between atoms: _268  and  _269
REMARK  108  A    between atoms: _269  and  _270
REMARK  109  A    between atoms: _273  and  _275
REMARK  110  A    between atoms: _275  and  _276
REMARK  111  A    between atoms: _275  and  _278
REMARK  112  A    between atoms: _278  and  _279
REMARK  113  A    between atoms: _284  and  _286
REMARK  114  A    between atoms: _286  and  _287
REMARK  115  A    between atoms: _286  and  _289
REMARK  116  A    between atoms: _289  and  _290
REMARK  117  A    between atoms: _290  and  _291
REMARK  118  A    between atoms: _291  and  _292
REMARK  119  A    between atoms: _292  and  _293
REMARK  120  A    between atoms: _297  and  _299
REMARK  121  A    between atoms: _299  and  _300
REMARK  122  A    between atoms: _299  and  _302
REMARK  123  A    between atoms: _302  and  _303
REMARK  124  A    between atoms: _313  and  _315
REMARK  125  A    between atoms: _315  and  _316
REMARK  126  A    between atoms: _315  and  _318
REMARK  127  A    between atoms: _318  and  _319
REMARK                            x       y       z     vdW  Elec       q    Type
REMARK                         _______ _______ _______ _____ _____    ______ ____
ROOT
ATOM      1  CA  LEU A   1      88.131  66.657  25.447  0.00  0.00    +0.133 C 
ENDROOT
BRANCH   1   2
ATOM      2  N   LEU A   1      89.486  66.371  25.929  0.00  0.00    -0.239 NA
ATOM      3  H   LEU A   1      89.680  65.457  26.385  0.00  0.00    +0.142 HD
ENDBRANCH   1   2
BRANCH   1   4
ATOM      4  C   LEU A   1      87.565  67.919  26.107  0.00  0.00    +0.224 C 
ATOM      5  O   LEU A   1      87.089  68.826  25.413  0.00  0.00    -0.287 OA
ENDBRANCH   1   4
BRANCH   1   6
ATOM      6  CB  LEU A   1      87.202  65.465  25.695  0.00  0.00    +0.025 C 
BRANCH   6   7
ATOM      7  CG  LEU A   1      87.468  64.267  24.775  0.00  0.00    +0.002 C 
ATOM      8  CD2 LEU A   1      86.943  62.954  25.364  0.00  0.00    +0.000 C 
ATOM      9  CD1 LEU A   1      86.875  64.505  23.394  0.00  0.00    +0.000 C 
ENDBRANCH   6   7
ENDBRANCH   1   6
TORSDOF 4
REMARK  Name = ../refined-set-2016/3f7h/3f7h_pocket.pdb
REMARK  127 active torsions:
REMARK  status: ('A' for Active; 'I' for Inactive)
REMARK    1  A    between atoms: _1  and  _3
REMARK    2  A    between atoms: _3  and  _4
REMARK    3  A    between atoms: _3  and  _6
REMARK    4  A    between atoms: _9  and  _11
REMARK    5  A    between atoms: _11  and  _12
REMARK    6  A    between atoms: _11  and  _14
REMARK    7  A    between atoms: _14  and  _15
REMARK    8  A    between atoms: _18  and  _20
REMARK    9  A    between atoms: _20  and  _21
REMARK   10  A    between atoms: _20  and  _23
REMARK   11  A    between atoms: _23  and  _24
REMARK   12  A    between atoms: _30  and  _32
REMARK   13  A    between atoms: _32  and  _33
REMARK   14  A    between atoms: _32  and  _35
REMARK   15  A    between atoms: _35  and  _36
REMARK   16  A    between atoms: _42  and  _44
REMARK   17  A    between atoms: _44  and  _45
REMARK   18  A    between atoms: _44  and  _47
REMARK   19  A    between atoms: _47  and  _48
REMARK   20  A    between atoms: _53  and  _55
REMARK   21  A    between atoms: _55  and  _56
REMARK   22  A    between atoms: _55  and  _58
REMARK   23  A    between atoms: _58  and  _59
REMARK   24  A    between atoms: _62  and  _64
REMARK   25  A    between atoms: _64  and  _65
REMARK   26  A    between atoms: _64  and  _67
REMARK   27  A    between atoms: _67  and  _68
REMARK   28  A    between atoms: _73  and  _75
REMARK   29  A    between atoms: _75  and  _76
REMARK   30  A    between atoms: _75  and  _78
REMARK   31  A    between atoms: _78  and  _79
REMARK   32  A    between atoms: _79  and  _80
REMARK   33  A    between atoms: _85  and  _87
REMARK   34  A    between atoms: _87  and  _88
REMARK   35  A    between atoms: _87  and  _90
REMARK   36  A    between atoms: _90  and  _91
REMARK   37  A    between atoms: _94  and  _96
REMARK   38  A    between atoms: _96  and  _97
REMARK   39  A    between atoms: _96  and  _99
REMARK   40  A    between atoms: _99  and  _100
REMARK   41  A    between atoms: _100  and  _101
REMARK   42  A    between atoms: _101  and  _102
REMARK   43  A    between atoms: _102  and  _103
REMARK   44  A    between atoms: _107  and  _109
REMARK   45  A    between atoms: _109  and  _110
REMARK   46  A    between atoms: _109  and  _112
REMARK   47  A    between atoms: _115  and  _117
REMARK   48  A    between atoms: _117  and  _118
REMARK   49  A    between atoms: _117  and  _120
REMARK   50  A    between atoms: _120  and  _121
REMARK   51  A    between atoms: _121  and  _122
REMARK   52  A    between atoms: _122  and  _123
REMARK   53  A    between atoms: _132  and  _134
REMARK   54  A    between atoms: _134  and  _135
REMARK   55  A    between atoms: _134  and  _137
REMARK   56  A    between atoms: _139  and  _141
REMARK   57  A    between atoms: _141  and  _142
REMARK   58  A    between atoms: _141  and  _144
REMARK   59  A    between atoms: _144  and  _145
REMARK   60  A    between atoms: _150  and  _151
REMARK   61  A    between atoms: _153  and  _155
REMARK   62  A    between atoms: _155  and  _156
REMARK   63  A    between atoms: _158  and  _160
REMARK   64  A    between atoms: _160  and  _161
REMARK   65  A    between atoms: _163  and  _165
REMARK   66  A    between atoms: _165  and  _166
REMARK   67  A    between atoms: _165  and  _168
REMARK   68  A    between atoms: _168  and  _169
REMARK   69  A    between atoms: _172  and  _174
REMARK   70  A    between atoms: _174  and  _175
REMARK   71  A    between atoms: _174  and  _177
REMARK   72  A    between atoms: _177  and  _178
REMARK   73  A    between atoms: _178  and  _179
REMARK   74  A    between atoms: _184  and  _186
REMARK   75  A    between atoms: _186  and  _187
REMARK   76  A    between atoms: _186  and  _189
REMARK   77  A    between atoms: _189  and  _190
REMARK   78  A    between atoms: _192  and  _194
REMARK   79  A    between atoms: _194  and  _195
REMARK   80  A    between atoms: _194  and  _197
REMARK   81  A    between atoms: _197  and  _198
REMARK   82  A    between atoms: _208  and  _210
REMARK   83  A    between atoms: _210  and  _211
REMARK   84  A    between atoms: _210  and  _213
REMARK   85  A    between atoms: _213  and  _214
REMARK   86  A    between atoms: _214  and  _215
REMARK   87  A    between atoms: _215  and  _216
REMARK   88  A    between atoms: _216  and  _217
REMARK   89  A    between atoms: _221  and  _223
REMARK   90  A    between atoms: _223  and  _224
REMARK   91  A    between atoms: _223  and  _226
REMARK   92  A    between atoms: _226  and  _227
REMARK   93  A    between atoms: _227  and  _228
REMARK   94  A    between atoms: _228  and  _229
REMARK   95  A    between atoms: _238  and  _240
REMARK   96  A    between atoms: _240  and  _241
REMARK   97  A    between atoms: _240  and  _243
REMARK   98  A    between atoms: _243  and  _244
REMARK   99  A    between atoms: _247  and  _249
REMARK  100  A    between atoms: _249  and  _250
REMARK  101  A    between atoms: _249  and  _252
REMARK  102  A    between atoms: _252  and  _253
REMARK  103  A    between atoms: _257  and  _258
REMARK  104  A    between atoms: _263  and  _265
REMARK  105  A    between atoms: _265  and  _266
REMARK  106  A    between atoms: _265  and  _268
REMARK  107  A    between atoms: _268  and  _269
REMARK  108  A    between atoms: _269  and  _270
REMARK  109  A    between atoms: _273  and  _275
REMARK  110  A    between atoms: _275  and  _276
REMARK  111  A    between atoms: _275  and  _278
REMARK  112  A    between atoms: _278  and  _279
REMARK  113  A    between atoms: _284  and  _286
REMARK  114  A    between atoms: _286  and  _287
REMARK  115  A    between atoms: _286  and  _289
REMARK  116  A    between atoms: _289  and  _290
REMARK  117  A    between atoms: _290  and  _291
REMARK  118  A    between atoms: _291  and  _292
REMARK  119  A    between atoms: _292  and  _293
REMARK  120  A    between atoms: _297  and  _299
REMARK  121  A    between atoms: _299  and  _300
REMARK  122  A    between atoms: _299  and  _302
REMARK  123  A    between atoms: _302  and  _303
REMARK  124  A    between atoms: _313  and  _315
REMARK  125  A    between atoms: _315  and  _316
REMARK  126  A    between atoms: _315  and  _318
REMARK  127  A    between atoms: _318  and  _319
REMARK                            x       y       z     vdW  Elec       q    Type
REMARK                         _______ _______ _______ _____ _____    ______ ____
ROOT
ATOM      1  CA  PHE A   2      81.273  67.869  27.424  0.00  0.00    +0.153 C 
ENDROOT
BRANCH   1   4
ATOM      2  C   PHE A   1      83.106  68.882  26.154  0.00  0.00    +0.239 C 
ATOM      3  O   PHE A   1      83.898  68.806  27.090  0.00  0.00    -0.274 OA
ATOM      4  N   PHE A   2      81.814  68.576  26.261  0.00  0.00    -0.297 N 
ATOM      5  H   PHE A   2      81.168  68.848  25.493  0.00  0.00    +0.150 HD
BRANCH   2   6
ATOM      6  CA  PHE A   1      83.568  69.346  24.780  0.00  0.00    +0.149 C 
BRANCH   6   7
ATOM      7  N   PHE A   1      84.575  70.411  24.815  0.00  0.00    -0.238 NA
ATOM      8  H   PHE A   1      85.581  70.156  24.875  0.00  0.00    +0.142 HD
ENDBRANCH   6   7
BRANCH   6   9
ATOM      9  CB  PHE A   1      84.097  68.135  24.014  0.00  0.00    +0.053 C 
BRANCH   9  10
ATOM     10  CG  PHE A   1      84.462  68.439  22.588  0.00  0.00    -0.020 A 
ATOM     11  CD2 PHE A   1      85.785  68.457  22.182  0.00  0.00    -0.004 A 
ATOM     12  CE2 PHE A   1      86.116  68.737  20.849  0.00  0.00    -0.000 A 
ATOM     13  CZ  PHE A   1      85.113  69.016  19.934  0.00  0.00    -0.000 A 
ATOM     14  CE1 PHE A   1      83.788  69.012  20.342  0.00  0.00    -0.000 A 
ATOM     15  CD1 PHE A   1      83.473  68.724  21.659  0.00  0.00    -0.004 A 
ENDBRANCH   9  10
ENDBRANCH   6   9
ENDBRANCH   2   6
ENDBRANCH   1   4
BRANCH   1  16
ATOM     16  C   PHE A   2      80.640  66.550  26.970  0.00  0.00    +0.241 C 
ATOM     17  N   HIS A   3      80.571  65.580  27.878  0.00  0.00    -0.297 N 
ATOM     18  H   HIS A   3      80.964  65.753  28.825  0.00  0.00    +0.150 HD
ATOM     19  O   PHE A   2      80.245  66.414  25.817  0.00  0.00    -0.273 OA
BRANCH  17  20
ATOM     20  CA  HIS A   3      79.963  64.278  27.595  0.00  0.00    +0.155 C 
BRANCH  20  21
ATOM     21  C   HIS A   3      78.441  64.353  27.722  0.00  0.00    +0.241 C 
ATOM     22  O   HIS A   3      77.919  64.788  28.753  0.00  0.00    -0.273 OA
ATOM     23  N   THR A   4      77.726  63.901  26.693  0.00  0.00    -0.296 N 
ATOM     24  H   THR A   4      78.215  63.578  25.834  0.00  0.00    +0.150 HD
BRANCH  23  25
ATOM     25  CA  THR A   4      76.258  63.850  26.750  0.00  0.00    +0.164 C 
BRANCH  25  26
ATOM     26  CB  THR A   4      75.625  63.585  25.373  0.00  0.00    +0.136 C 
ATOM     27  CG2 THR A   4      76.151  64.567  24.326  0.00  0.00    +0.034 C 
BRANCH  26  28
ATOM     28  OG1 THR A   4      75.886  62.230  24.972  0.00  0.00    -0.382 OA
ATOM     29  HG1 THR A   4      76.864  62.086  24.917  0.00  0.00    +0.210 HD
ENDBRANCH  26  28
ENDBRANCH  25  26
BRANCH  25  30
ATOM     30  C   THR A   4      75.742  62.774  27.718  0.00  0.00    +0.229 C 
ATOM     31  O   THR A   4      74.608  62.854  28.184  0.00  0.00    -0.286 OA
ENDBRANCH  25  30
ENDBRANCH  23  25
ENDBRANCH  20  21
BRANCH  20  32
ATOM     32  CB  HIS A   3      80.504  63.237  28.583  0.00  0.00    +0.076 C 
BRANCH  32  33
ATOM     33  CG  HIS A   3      80.172  61.819  28.232  0.00  0.00    +0.082 A 
ATOM     34  ND1 HIS A   3      80.078  60.823  29.182  0.00  0.00    -0.227 NA
ATOM     35  CE1 HIS A   3      79.780  59.681  28.589  0.00  0.00    +0.199 A 
ATOM     36  NE2 HIS A   3      79.671  59.900  27.291  0.00  0.00    -0.221 NA
ATOM     37  CD2 HIS A   3      79.908  61.230  27.042  0.00  0.00    +0.115 A 
ENDBRANCH  32  33
ENDBRANCH  20  32
ENDBRANCH  17  20
ENDBRANCH   1  16
BRANCH   1  38
ATOM     38  CB  PHE A   2      80.257  68.736  28.177  0.00  0.00    +0.055 C 
BRANCH  38  39
ATOM     39  CG  PHE A   2      79.046  69.118  27.365  0.00  0.00    -0.020 A 
ATOM     40  CD2 PHE A   2      77.939  68.282  27.307  0.00  0.00    -0.004 A 
ATOM     41  CE2 PHE A   2      76.812  68.630  26.566  0.00  0.00    -0.000 A 
ATOM     42  CZ  PHE A   2      76.781  69.829  25.876  0.00  0.00    -0.000 A 
ATOM     43  CE1 PHE A   2      77.882  70.673  25.917  0.00  0.00    -0.000 A 
ATOM     44  CD1 PHE A   2      79.006  70.321  26.672  0.00  0.00    -0.004 A 
ENDBRANCH  38  39
ENDBRANCH   1  38
TORSDOF 16
REMARK  Name = ../refined-set-2016/3f7h/3f7h_pocket.pdb
REMARK  127 active torsions:
REMARK  status: ('A' for Active; 'I' for Inactive)
REMARK    1  A    between atoms: _1  and  _3
REMARK    2  A    between atoms: _3  and  _4
REMARK    3  A    between atoms: _3  and  _6
REMARK    4  A    between atoms: _9  and  _11
REMARK    5  A    between atoms: _11  and  _12
REMARK    6  A    between atoms: _11  and  _14
REMARK    7  A    between atoms: _14  and  _15
REMARK    8  A    between atoms: _18  and  _20
REMARK    9  A    between atoms: _20  and  _21
REMARK   10  A    between atoms: _20  and  _23
REMARK   11  A    between atoms: _23  and  _24
REMARK   12  A    between atoms: _30  and  _32
REMARK   13  A    between atoms: _32  and  _33
REMARK   14  A    between atoms: _32  and  _35
REMARK   15  A    between atoms: _35  and  _36
REMARK   16  A    between atoms: _42  and  _44
REMARK   17  A    between atoms: _44  and  _45
REMARK   18  A    between atoms: _44  and  _47
REMARK   19  A    between atoms: _47  and  _48
REMARK   20  A    between atoms: _53  and  _55
REMARK   21  A    between atoms: _55  and  _56
REMARK   22  A    between atoms: _55  and  _58
REMARK   23  A    between atoms: _58  and  _59
REMARK   24  A    between atoms: _62  and  _64
REMARK   25  A    between atoms: _64  and  _65
REMARK   26  A    between atoms: _64  and  _67
REMARK   27  A    between atoms: _67  and  _68
REMARK   28  A    between atoms: _73  and  _75
REMARK   29  A    between atoms: _75  and  _76
REMARK   30  A    between atoms: _75  and  _78
REMARK   31  A    between atoms: _78  and  _79
REMARK   32  A    between atoms: _79  and  _80
REMARK   33  A    between atoms: _85  and  _87
REMARK   34  A    between atoms: _87  and  _88
REMARK   35  A    between atoms: _87  and  _90
REMARK   36  A    between atoms: _90  and  _91
REMARK   37  A    between atoms: _94  and  _96
REMARK   38  A    between atoms: _96  and  _97
REMARK   39  A    between atoms: _96  and  _99
REMARK   40  A    between atoms: _99  and  _100
REMARK   41  A    between atoms: _100  and  _101
REMARK   42  A    between atoms: _101  and  _102
REMARK   43  A    between atoms: _102  and  _103
REMARK   44  A    between atoms: _107  and  _109
REMARK   45  A    between atoms: _109  and  _110
REMARK   46  A    between atoms: _109  and  _112
REMARK   47  A    between atoms: _115  and  _117
REMARK   48  A    between atoms: _117  and  _118
REMARK   49  A    between atoms: _117  and  _120
REMARK   50  A    between atoms: _120  and  _121
REMARK   51  A    between atoms: _121  and  _122
REMARK   52  A    between atoms: _122  and  _123
REMARK   53  A    between atoms: _132  and  _134
REMARK   54  A    between atoms: _134  and  _135
REMARK   55  A    between atoms: _134  and  _137
REMARK   56  A    between atoms: _139  and  _141
REMARK   57  A    between atoms: _141  and  _142
REMARK   58  A    between atoms: _141  and  _144
REMARK   59  A    between atoms: _144  and  _145
REMARK   60  A    between atoms: _150  and  _151
REMARK   61  A    between atoms: _153  and  _155
REMARK   62  A    between atoms: _155  and  _156
REMARK   63  A    between atoms: _158  and  _160
REMARK   64  A    between atoms: _160  and  _161
REMARK   65  A    between atoms: _163  and  _165
REMARK   66  A    between atoms: _165  and  _166
REMARK   67  A    between atoms: _165  and  _168
REMARK   68  A    between atoms: _168  and  _169
REMARK   69  A    between atoms: _172  and  _174
REMARK   70  A    between atoms: _174  and  _175
REMARK   71  A    between atoms: _174  and  _177
REMARK   72  A    between atoms: _177  and  _178
REMARK   73  A    between atoms: _178  and  _179
REMARK   74  A    between atoms: _184  and  _186
REMARK   75  A    between atoms: _186  and  _187
REMARK   76  A    between atoms: _186  and  _189
REMARK   77  A    between atoms: _189  and  _190
REMARK   78  A    between atoms: _192  and  _194
REMARK   79  A    between atoms: _194  and  _195
REMARK   80  A    between atoms: _194  and  _197
REMARK   81  A    between atoms: _197  and  _198
REMARK   82  A    between atoms: _208  and  _210
REMARK   83  A    between atoms: _210  and  _211
REMARK   84  A    between atoms: _210  and  _213
REMARK   85  A    between atoms: _213  and  _214
REMARK   86  A    between atoms: _214  and  _215
REMARK   87  A    between atoms: _215  and  _216
REMARK   88  A    between atoms: _216  and  _217
REMARK   89  A    between atoms: _221  and  _223
REMARK   90  A    between atoms: _223  and  _224
REMARK   91  A    between atoms: _223  and  _226
REMARK   92  A    between atoms: _226  and  _227
REMARK   93  A    between atoms: _227  and  _228
REMARK   94  A    between atoms: _228  and  _229
REMARK   95  A    between atoms: _238  and  _240
REMARK   96  A    between atoms: _240  and  _241
REMARK   97  A    between atoms: _240  and  _243
REMARK   98  A    between atoms: _243  and  _244
REMARK   99  A    between atoms: _247  and  _249
REMARK  100  A    between atoms: _249  and  _250
REMARK  101  A    between atoms: _249  and  _252
REMARK  102  A    between atoms: _252  and  _253
REMARK  103  A    between atoms: _257  and  _258
REMARK  104  A    between atoms: _263  and  _265
REMARK  105  A    between atoms: _265  and  _266
REMARK  106  A    between atoms: _265  and  _268
REMARK  107  A    between atoms: _268  and  _269
REMARK  108  A    between atoms: _269  and  _270
REMARK  109  A    between atoms: _273  and  _275
REMARK  110  A    between atoms: _275  and  _276
REMARK  111  A    between atoms: _275  and  _278
REMARK  112  A    between atoms: _278  and  _279
REMARK  113  A    between atoms: _284  and  _286
REMARK  114  A    between atoms: _286  and  _287
REMARK  115  A    between atoms: _286  and  _289
REMARK  116  A    between atoms: _289  and  _290
REMARK  117  A    between atoms: _290  and  _291
REMARK  118  A    between atoms: _291  and  _292
REMARK  119  A    between atoms: _292  and  _293
REMARK  120  A    between atoms: _297  and  _299
REMARK  121  A    between atoms: _299  and  _300
REMARK  122  A    between atoms: _299  and  _302
REMARK  123  A    between atoms: _302  and  _303
REMARK  124  A    between atoms: _313  and  _315
REMARK  125  A    between atoms: _315  and  _316
REMARK  126  A    between atoms: _315  and  _318
REMARK  127  A    between atoms: _318  and  _319
REMARK                            x       y       z     vdW  Elec       q    Type
REMARK                         _______ _______ _______ _____ _____    ______ ____
ROOT
ATOM      1  CA  LYS A   4      78.844  61.345  22.145  0.00  0.00    +0.149 C 
ENDROOT
BRANCH   1   3
ATOM      2  C   ASP A   3      80.594  59.727  22.669  0.00  0.00    +0.241 C 
ATOM      3  N   LYS A   4      79.322  60.106  22.745  0.00  0.00    -0.297 N 
ATOM      4  H   LYS A   4      78.646  59.498  23.249  0.00  0.00    +0.150 HD
ATOM      5  O   ASP A   3      81.467  60.420  22.144  0.00  0.00    -0.273 OA
BRANCH   2   6
ATOM      6  CA  ASP A   3      80.944  58.383  23.319  0.00  0.00    +0.160 C 
BRANCH   6   9
ATOM      7  C   GLN A   2      79.171  57.135  24.452  0.00  0.00    +0.241 C 
ATOM      8  O   GLN A   2      79.540  57.536  25.561  0.00  0.00    -0.273 OA
ATOM      9  N   ASP A   3      79.806  57.464  23.326  0.00  0.00    -0.297 N 
ATOM     10  H   ASP A   3      79.482  57.055  22.426  0.00  0.00    +0.150 HD
BRANCH   7  11
ATOM     11  CA  GLN A   2      77.937  56.218  24.338  0.00  0.00    +0.149 C 
BRANCH  11  13
ATOM     12  C   HIS A   1      76.456  58.039  25.062  0.00  0.00    +0.239 C 
ATOM     13  N   GLN A   2      76.826  56.759  25.121  0.00  0.00    -0.297 N 
ATOM     14  H   GLN A   2      76.302  56.118  25.751  0.00  0.00    +0.150 HD
ATOM     15  O   HIS A   1      77.032  58.883  24.375  0.00  0.00    -0.274 OA
BRANCH  12  16
ATOM     16  CA  HIS A   1      75.265  58.433  25.919  0.00  0.00    +0.151 C 
BRANCH  16  17
ATOM     17  N   HIS A   1      75.625  59.553  26.780  0.00  0.00    -0.238 NA
ATOM     18  H   HIS A   1      75.738  60.497  26.358  0.00  0.00    +0.142 HD
ENDBRANCH  16  17
BRANCH  16  19
ATOM     19  CB  HIS A   1      74.083  58.806  25.027  0.00  0.00    +0.074 C 
BRANCH  19  20
ATOM     20  CG  HIS A   1      72.811  59.037  25.782  0.00  0.00    +0.082 A 
ATOM     21  CD2 HIS A   1      72.319  58.450  26.900  0.00  0.00    +0.115 A 
ATOM     22  NE2 HIS A   1      71.109  59.043  27.171  0.00  0.00    -0.221 NA
ATOM     23  CE1 HIS A   1      70.867  59.962  26.253  0.00  0.00    +0.199 A 
ATOM     24  ND1 HIS A   1      71.881  59.982  25.405  0.00  0.00    -0.227 NA
ENDBRANCH  19  20
ENDBRANCH  16  19
ENDBRANCH  12  16
ENDBRANCH  11  13
BRANCH  11  25
ATOM     25  CB  GLN A   2      77.501  55.996  22.878  0.00  0.00    +0.039 C 
BRANCH  25  26
ATOM     26  CG  GLN A   2      76.366  54.975  22.693  0.00  0.00    +0.087 C 
BRANCH  26  27
ATOM     27  CD  GLN A   2      74.975  55.559  22.902  0.00  0.00    +0.219 C 
ATOM     28  NE2 GLN A   2      74.148  54.855  23.671  0.00  0.00    -0.329 N 
ATOM     29 HE21 GLN A   2      74.470  53.965  24.102  0.00  0.00    +0.145 HD
ATOM     30 HE22 GLN A   2      73.180  55.195  23.841  0.00  0.00    +0.145 HD
ATOM     31  OE1 GLN A   2      74.642  56.621  22.367  0.00  0.00    -0.275 OA
ENDBRANCH  26  27
ENDBRANCH  25  26
ENDBRANCH  11  25
ENDBRANCH   7  11
ENDBRANCH   6   9
BRANCH   6  32
ATOM     32  CB  ASP A   3      82.153  57.737  22.626  0.00  0.00    +0.143 C 
BRANCH  32  33
ATOM     33  CG  ASP A   3      81.921  57.470  21.146  0.00  0.00    +0.367 C 
ATOM     34  OD2 ASP A   3      80.763  57.543  20.680  0.00  0.00    -0.246 OA
ATOM     35  OD1 ASP A   3      82.913  57.170  20.446  0.00  0.00    -0.246 OA
ENDBRANCH  32  33
ENDBRANCH   6  32
ENDBRANCH   2   6
ENDBRANCH   1   3
BRANCH   1  36
ATOM     36  C   LYS A   4      79.242  62.529  23.024  0.00  0.00    +0.241 C 
ATOM     37  O   LYS A   4      78.987  62.527  24.226  0.00  0.00    -0.273 OA
ATOM     38  N   VAL A   5      79.867  63.533  22.414  0.00  0.00    -0.297 N 
ATOM     39  H   VAL A   5      80.116  63.431  21.409  0.00  0.00    +0.150 HD
BRANCH  38  40
ATOM     40  CA  VAL A   5      80.216  64.774  23.104  0.00  0.00    +0.149 C 
BRANCH  40  41
ATOM     41  C   VAL A   5      79.706  65.967  22.308  0.00  0.00    +0.241 C 
ATOM     42  N   ARG A   6      79.664  67.126  22.958  0.00  0.00    -0.297 N 
ATOM     43  H   ARG A   6      79.928  67.154  23.964  0.00  0.00    +0.150 HD
ATOM     44  O   VAL A   5      79.352  65.838  21.136  0.00  0.00    -0.273 OA
BRANCH  42  45
ATOM     45  CA  ARG A   6      79.258  68.356  22.297  0.00  0.00    +0.149 C 
BRANCH  45  46
ATOM     46  C   ARG A   6      80.091  69.540  22.779  0.00  0.00    +0.241 C 
ATOM     47  O   ARG A   6      80.462  69.608  23.946  0.00  0.00    -0.273 OA
ATOM     48  N   CYS A   7      80.393  70.466  21.870  0.00  0.00    -0.297 N 
ATOM     49  H   CYS A   7      80.130  70.310  20.876  0.00  0.00    +0.150 HD
BRANCH  48  50
ATOM     50  CA  CYS A   7      81.087  71.696  22.244  0.00  0.00    +0.149 C 
BRANCH  50  51
ATOM     51  CB  CYS A   7      81.749  72.338  21.027  0.00  0.00    +0.096 C 
ATOM     52  SG  CYS A   7      82.412  74.002  21.287  0.00  0.00    -0.080 S 
ENDBRANCH  50  51
BRANCH  50  53
ATOM     53  C   CYS A   7      80.087  72.663  22.857  0.00  0.00    +0.228 C 
ATOM     54  O   CYS A   7      79.010  72.871  22.302  0.00  0.00    -0.286 OA
ENDBRANCH  50  53
ENDBRANCH  48  50
ENDBRANCH  45  46
BRANCH  45  55
ATOM     55  CB  ARG A   6      77.784  68.622  22.557  0.00  0.00    +0.033 C 
BRANCH  55  56
ATOM     56  CG  ARG A   6      77.157  69.476  21.523  0.00  0.00    +0.045 C 
BRANCH  56  57
ATOM     57  CD  ARG A   6      75.726  69.803  21.870  0.00  0.00    +0.174 C 
BRANCH  57  58
ATOM     58  NE  ARG A   6      74.819  68.660  21.825  0.00  0.00    -0.265 N 
ATOM     59  HE  ARG A   6      74.637  68.157  22.717  0.00  0.00    +0.259 HD
ATOM     60  CZ  ARG A   6      74.207  68.212  20.732  0.00  0.00    +0.342 C 
ATOM     61  NH2 ARG A   6      73.374  67.190  20.838  0.00  0.00    -0.292 N 
ATOM     62 HH21 ARG A   6      73.206  66.750  21.765  0.00  0.00    +0.255 HD
ATOM     63 HH22 ARG A   6      72.887  66.827  19.994  0.00  0.00    +0.255 HD
ATOM     64  NH1 ARG A   6      74.418  68.757  19.533  0.00  0.00    -0.292 N 
ATOM     65 HH11 ARG A   6      75.077  69.556  19.433  0.00  0.00    +0.255 HD
ATOM     66 HH12 ARG A   6      73.924  68.383  18.698  0.00  0.00    +0.255 HD
ENDBRANCH  57  58
ENDBRANCH  56  57
ENDBRANCH  55  56
ENDBRANCH  45  55
ENDBRANCH  42  45
ENDBRANCH  40  41
BRANCH  40  67
ATOM     67  CB  VAL A   5      81.744  64.928  23.310  0.00  0.00    +0.027 C 
ATOM     68  CG2 VAL A   5      82.316  63.717  24.055  0.00  0.00    +0.002 C 
ATOM     69  CG1 VAL A   5      82.467  65.149  21.977  0.00  0.00    +0.002 C 
ENDBRANCH  40  67
ENDBRANCH  38  40
ENDBRANCH   1  36
BRANCH   1  70
ATOM     70  CB  LYS A   4      77.324  61.309  21.987  0.00  0.00    +0.029 C 
BRANCH  70  71
ATOM     71  CG  LYS A   4      76.824  60.310  20.955  0.00  0.00    +0.000 C 
BRANCH  71  72
ATOM     72  CD  LYS A   4      75.317  60.088  21.080  0.00  0.00    -0.024 C 
BRANCH  72  73
ATOM     73  CE  LYS A   4      74.764  59.244  19.939  0.00  0.00    -0.086 C 
BRANCH  73  74
ATOM     74  NZ  LYS A   4      75.192  57.811  19.999  0.00  0.00    +0.380 N 
ATOM     75  HZ1 LYS A   4      74.861  57.389  20.890  0.00  0.00    -0.089 HD
ATOM     76  HZ2 LYS A   4      76.230  57.758  19.953  0.00  0.00    -0.089 HD
ATOM     77  HZ3 LYS A   4      74.782  57.294  19.195  0.00  0.00    -0.089 HD
ENDBRANCH  73  74
ENDBRANCH  72  73
ENDBRANCH  71  72
ENDBRANCH  70  71
ENDBRANCH   1  70
TORSDOF 32
REMARK  Name = ../refined-set-2016/3f7h/3f7h_pocket.pdb
REMARK  127 active torsions:
REMARK  status: ('A' for Active; 'I' for Inactive)
REMARK    1  A    between atoms: _1  and  _3
REMARK    2  A    between atoms: _3  and  _4
REMARK    3  A    between atoms: _3  and  _6
REMARK    4  A    between atoms: _9  and  _11
REMARK    5  A    between atoms: _11  and  _12
REMARK    6  A    between atoms: _11  and  _14
REMARK    7  A    between atoms: _14  and  _15
REMARK    8  A    between atoms: _18  and  _20
REMARK    9  A    between atoms: _20  and  _21
REMARK   10  A    between atoms: _20  and  _23
REMARK   11  A    between atoms: _23  and  _24
REMARK   12  A    between atoms: _30  and  _32
REMARK   13  A    between atoms: _32  and  _33
REMARK   14  A    between atoms: _32  and  _35
REMARK   15  A    between atoms: _35  and  _36
REMARK   16  A    between atoms: _42  and  _44
REMARK   17  A    between atoms: _44  and  _45
REMARK   18  A    between atoms: _44  and  _47
REMARK   19  A    between atoms: _47  and  _48
REMARK   20  A    between atoms: _53  and  _55
REMARK   21  A    between atoms: _55  and  _56
REMARK   22  A    between atoms: _55  and  _58
REMARK   23  A    between atoms: _58  and  _59
REMARK   24  A    between atoms: _62  and  _64
REMARK   25  A    between atoms: _64  and  _65
REMARK   26  A    between atoms: _64  and  _67
REMARK   27  A    between atoms: _67  and  _68
REMARK   28  A    between atoms: _73  and  _75
REMARK   29  A    between atoms: _75  and  _76
REMARK   30  A    between atoms: _75  and  _78
REMARK   31  A    between atoms: _78  and  _79
REMARK   32  A    between atoms: _79  and  _80
REMARK   33  A    between atoms: _85  and  _87
REMARK   34  A    between atoms: _87  and  _88
REMARK   35  A    between atoms: _87  and  _90
REMARK   36  A    between atoms: _90  and  _91
REMARK   37  A    between atoms: _94  and  _96
REMARK   38  A    between atoms: _96  and  _97
REMARK   39  A    between atoms: _96  and  _99
REMARK   40  A    between atoms: _99  and  _100
REMARK   41  A    between atoms: _100  and  _101
REMARK   42  A    between atoms: _101  and  _102
REMARK   43  A    between atoms: _102  and  _103
REMARK   44  A    between atoms: _107  and  _109
REMARK   45  A    between atoms: _109  and  _110
REMARK   46  A    between atoms: _109  and  _112
REMARK   47  A    between atoms: _115  and  _117
REMARK   48  A    between atoms: _117  and  _118
REMARK   49  A    between atoms: _117  and  _120
REMARK   50  A    between atoms: _120  and  _121
REMARK   51  A    between atoms: _121  and  _122
REMARK   52  A    between atoms: _122  and  _123
REMARK   53  A    between atoms: _132  and  _134
REMARK   54  A    between atoms: _134  and  _135
REMARK   55  A    between atoms: _134  and  _137
REMARK   56  A    between atoms: _139  and  _141
REMARK   57  A    between atoms: _141  and  _142
REMARK   58  A    between atoms: _141  and  _144
REMARK   59  A    between atoms: _144  and  _145
REMARK   60  A    between atoms: _150  and  _151
REMARK   61  A    between atoms: _153  and  _155
REMARK   62  A    between atoms: _155  and  _156
REMARK   63  A    between atoms: _158  and  _160
REMARK   64  A    between atoms: _160  and  _161
REMARK   65  A    between atoms: _163  and  _165
REMARK   66  A    between atoms: _165  and  _166
REMARK   67  A    between atoms: _165  and  _168
REMARK   68  A    between atoms: _168  and  _169
REMARK   69  A    between atoms: _172  and  _174
REMARK   70  A    between atoms: _174  and  _175
REMARK   71  A    between atoms: _174  and  _177
REMARK   72  A    between atoms: _177  and  _178
REMARK   73  A    between atoms: _178  and  _179
REMARK   74  A    between atoms: _184  and  _186
REMARK   75  A    between atoms: _186  and  _187
REMARK   76  A    between atoms: _186  and  _189
REMARK   77  A    between atoms: _189  and  _190
REMARK   78  A    between atoms: _192  and  _194
REMARK   79  A    between atoms: _194  and  _195
REMARK   80  A    between atoms: _194  and  _197
REMARK   81  A    between atoms: _197  and  _198
REMARK   82  A    between atoms: _208  and  _210
REMARK   83  A    between atoms: _210  and  _211
REMARK   84  A    between atoms: _210  and  _213
REMARK   85  A    between atoms: _213  and  _214
REMARK   86  A    between atoms: _214  and  _215
REMARK   87  A    between atoms: _215  and  _216
REMARK   88  A    between atoms: _216  and  _217
REMARK   89  A    between atoms: _221  and  _223
REMARK   90  A    between atoms: _223  and  _224
REMARK   91  A    between atoms: _223  and  _226
REMARK   92  A    between atoms: _226  and  _227
REMARK   93  A    between atoms: _227  and  _228
REMARK   94  A    between atoms: _228  and  _229
REMARK   95  A    between atoms: _238  and  _240
REMARK   96  A    between atoms: _240  and  _241
REMARK   97  A    between atoms: _240  and  _243
REMARK   98  A    between atoms: _243  and  _244
REMARK   99  A    between atoms: _247  and  _249
REMARK  100  A    between atoms: _249  and  _250
REMARK  101  A    between atoms: _249  and  _252
REMARK  102  A    between atoms: _252  and  _253
REMARK  103  A    between atoms: _257  and  _258
REMARK  104  A    between atoms: _263  and  _265
REMARK  105  A    between atoms: _265  and  _266
REMARK  106  A    between atoms: _265  and  _268
REMARK  107  A    between atoms: _268  and  _269
REMARK  108  A    between atoms: _269  and  _270
REMARK  109  A    between atoms: _273  and  _275
REMARK  110  A    between atoms: _275  and  _276
REMARK  111  A    between atoms: _275  and  _278
REMARK  112  A    between atoms: _278  and  _279
REMARK  113  A    between atoms: _284  and  _286
REMARK  114  A    between atoms: _286  and  _287
REMARK  115  A    between atoms: _286  and  _289
REMARK  116  A    between atoms: _289  and  _290
REMARK  117  A    between atoms: _290  and  _291
REMARK  118  A    between atoms: _291  and  _292
REMARK  119  A    between atoms: _292  and  _293
REMARK  120  A    between atoms: _297  and  _299
REMARK  121  A    between atoms: _299  and  _300
REMARK  122  A    between atoms: _299  and  _302
REMARK  123  A    between atoms: _302  and  _303
REMARK  124  A    between atoms: _313  and  _315
REMARK  125  A    between atoms: _315  and  _316
REMARK  126  A    between atoms: _315  and  _318
REMARK  127  A    between atoms: _318  and  _319
REMARK                            x       y       z     vdW  Elec       q    Type
REMARK                         _______ _______ _______ _____ _____    ______ ____
ROOT
ATOM      1  CA  SER A   6      82.674  57.384  17.089  0.00  0.00    +0.178 C 
ENDROOT
BRANCH   1   2
ATOM      2  C   SER A   6      84.145  57.810  17.119  0.00  0.00    +0.243 C 
ATOM      3  N   TRP A   7      84.605  58.148  18.319  0.00  0.00    -0.297 N 
ATOM      4  H   TRP A   7      83.947  58.147  19.125  0.00  0.00    +0.150 HD
ATOM      5  O   SER A   6      84.840  57.821  16.092  0.00  0.00    -0.273 OA
BRANCH   3   6
ATOM      6  CA  TRP A   7      85.996  58.521  18.551  0.00  0.00    +0.153 C 
BRANCH   6   7
ATOM      7  C   TRP A   7      86.911  57.317  18.351  0.00  0.00    +0.241 C 
ATOM      8  O   TRP A   7      86.588  56.198  18.766  0.00  0.00    -0.273 OA
ATOM      9  N   LYS A   8      88.040  57.556  17.690  0.00  0.00    -0.297 N 
ATOM     10  H   LYS A   8      88.210  58.513  17.320  0.00  0.00    +0.150 HD
BRANCH   9  11
ATOM     11  CA  LYS A   8      89.049  56.526  17.464  0.00  0.00    +0.149 C 
BRANCH  11  12
ATOM     12  C   LYS A   8      90.205  56.738  18.424  0.00  0.00    +0.241 C 
ATOM     13  N   ARG A   9      90.842  55.642  18.830  0.00  0.00    -0.298 N 
ATOM     14  H   ARG A   9      90.538  54.711  18.479  0.00  0.00    +0.150 HD
ATOM     15  O   LYS A   8      90.501  57.874  18.809  0.00  0.00    -0.273 OA
BRANCH  13  16
ATOM     16  CA  ARG A   9      91.958  55.731  19.758  0.00  0.00    +0.137 C 
BRANCH  16  17
ATOM     17  C   ARG A   9      93.019  56.652  19.157  0.00  0.00    +0.227 C 
ATOM     18  O   ARG A   9      93.320  56.572  17.964  0.00  0.00    -0.286 OA
ENDBRANCH  16  17
BRANCH  16  19
ATOM     19  CB  ARG A   9      92.521  54.338  20.111  0.00  0.00    +0.031 C 
BRANCH  19  20
ATOM     20  CG  ARG A   9      93.131  53.550  18.960  0.00  0.00    +0.045 C 
BRANCH  20  21
ATOM     21  CD  ARG A   9      93.744  52.213  19.431  0.00  0.00    +0.174 C 
BRANCH  21  22
ATOM     22  NE  ARG A   9      94.543  51.608  18.360  0.00  0.00    -0.265 N 
ATOM     23  CZ  ARG A   9      95.440  50.626  18.505  0.00  0.00    +0.342 C 
ATOM     24  NH2 ARG A   9      95.707  50.088  19.690  0.00  0.00    -0.292 N 
ATOM     25 HH21 ARG A   9      95.213  50.429  20.539  0.00  0.00    +0.255 HD
ATOM     26 HH22 ARG A   9      96.410  49.326  19.768  0.00  0.00    +0.255 HD
ATOM     27  NH1 ARG A   9      96.091  50.180  17.437  0.00  0.00    -0.292 N 
ATOM     28 HH11 ARG A   9      96.791  49.417  17.536  0.00  0.00    +0.255 HD
ATOM     29 HH12 ARG A   9      95.901  50.594  16.502  0.00  0.00    +0.255 HD
ATOM     30  HE  ARG A   9      94.399  51.977  17.398  0.00  0.00    +0.259 HD
ENDBRANCH  21  22
ENDBRANCH  20  21
ENDBRANCH  19  20
ENDBRANCH  16  19
ENDBRANCH  13  16
ENDBRANCH  11  12
BRANCH  11  31
ATOM     31  CB  LYS A   8      89.534  56.560  16.017  0.00  0.00    +0.029 C 
BRANCH  31  32
ATOM     32  CG  LYS A   8      88.426  56.289  15.000  0.00  0.00    +0.000 C 
BRANCH  32  33
ATOM     33  CD  LYS A   8      87.883  54.857  15.103  0.00  0.00    -0.024 C 
BRANCH  33  34
ATOM     34  CE  LYS A   8      86.419  54.768  14.676  0.00  0.00    -0.086 C 
BRANCH  34  35
ATOM     35  NZ  LYS A   8      85.824  53.432  14.955  0.00  0.00    +0.380 N 
ATOM     36  HZ1 LYS A   8      85.873  53.238  15.976  0.00  0.00    -0.089 HD
ATOM     37  HZ2 LYS A   8      84.831  53.425  14.647  0.00  0.00    -0.089 HD
ATOM     38  HZ3 LYS A   8      86.354  52.703  14.437  0.00  0.00    -0.089 HD
ENDBRANCH  34  35
ENDBRANCH  33  34
ENDBRANCH  32  33
ENDBRANCH  31  32
ENDBRANCH  11  31
ENDBRANCH   9  11
ENDBRANCH   6   7
BRANCH   6  39
ATOM     39  CB  TRP A   7      86.166  59.094  19.961  0.00  0.00    +0.057 C 
BRANCH  39  40
ATOM     40  CG  TRP A   7      85.496  60.434  20.124  0.00  0.00    -0.002 A 
ATOM     41  CD1 TRP A   7      84.183  60.667  20.410  0.00  0.00    +0.068 A 
ATOM     42  NE1 TRP A   7      83.939  62.018  20.450  0.00  0.00    -0.352 N 
ATOM     43  HE1 TRP A   7      83.021  62.462  20.654  0.00  0.00    +0.166 HD
ATOM     44  CE2 TRP A   7      85.105  62.686  20.176  0.00  0.00    +0.056 A 
ATOM     45  CZ2 TRP A   7      85.361  64.053  20.094  0.00  0.00    +0.017 A 
ATOM     46  CH2 TRP A   7      86.646  64.440  19.794  0.00  0.00    +0.001 A 
ATOM     47  CZ3 TRP A   7      87.659  63.500  19.579  0.00  0.00    +0.000 A 
ATOM     48  CE3 TRP A   7      87.403  62.140  19.652  0.00  0.00    +0.001 A 
ATOM     49  CD2 TRP A   7      86.105  61.716  19.960  0.00  0.00    +0.013 A 
ENDBRANCH  39  40
ENDBRANCH   6  39
ENDBRANCH   3   6
ENDBRANCH   1   2
BRANCH   1  51
ATOM     50  C   GLN A   5      81.843  59.657  17.460  0.00  0.00    +0.241 C 
ATOM     51  N   SER A   6      81.832  58.366  17.782  0.00  0.00    -0.295 N 
ATOM     52  H   SER A   6      81.208  58.043  18.548  0.00  0.00    +0.150 HD
ATOM     53  O   GLN A   5      82.560  60.111  16.570  0.00  0.00    -0.273 OA
BRANCH  50  54
ATOM     54  CA  GLN A   5      80.923  60.583  18.253  0.00  0.00    +0.149 C 
BRANCH  54  57
ATOM     55  C   LEU A   4      80.917  63.018  18.415  0.00  0.00    +0.241 C 
ATOM     56  O   LEU A   4      80.824  62.988  19.643  0.00  0.00    -0.273 OA
ATOM     57  N   GLN A   5      80.932  61.922  17.663  0.00  0.00    -0.297 N 
ATOM     58  H   GLN A   5      80.951  62.019  16.628  0.00  0.00    +0.150 HD
BRANCH  55  59
ATOM     59  CA  LEU A   4      81.021  64.350  17.676  0.00  0.00    +0.149 C 
BRANCH  59  61
ATOM     60  C   GLY A   3      79.346  66.146  17.542  0.00  0.00    +0.243 C 
ATOM     61  N   LEU A   4      80.110  65.334  18.267  0.00  0.00    -0.297 N 
ATOM     62  H   LEU A   4      80.058  65.401  19.304  0.00  0.00    +0.150 HD
ATOM     63  O   GLY A   3      79.379  66.195  16.312  0.00  0.00    -0.273 OA
BRANCH  60  64
ATOM     64  CA  GLY A   3      78.395  67.045  18.316  0.00  0.00    +0.176 C 
BRANCH  64  67
ATOM     65  C   GLY A   2      78.937  69.425  18.171  0.00  0.00    +0.243 C 
ATOM     66  O   GLY A   2      79.681  69.375  19.155  0.00  0.00    -0.273 OA
ATOM     67  N   GLY A   3      78.278  68.368  17.700  0.00  0.00    -0.295 N 
ATOM     68  H   GLY A   3      77.662  68.486  16.870  0.00  0.00    +0.150 HD
BRANCH  65  69
ATOM     69  CA  GLY A   2      78.725  70.737  17.443  0.00  0.00    +0.176 C 
BRANCH  69  72
ATOM     70  C   TYR A   1      77.229  71.858  19.007  0.00  0.00    +0.239 C 
ATOM     71  O   TYR A   1      76.332  71.046  18.787  0.00  0.00    -0.274 OA
ATOM     72  N   GLY A   2      78.416  71.788  18.414  0.00  0.00    -0.296 N 
ATOM     73  H   GLY A   2      79.142  72.496  18.645  0.00  0.00    +0.150 HD
BRANCH  70  74
ATOM     74  CA  TYR A   1      77.021  73.001  20.012  0.00  0.00    +0.149 C 
BRANCH  74  75
ATOM     75  N   TYR A   1      78.011  74.091  19.849  0.00  0.00    -0.238 NA
ATOM     76  H   TYR A   1      78.687  74.256  20.622  0.00  0.00    +0.142 HD
ENDBRANCH  74  75
BRANCH  74  77
ATOM     77  CB  TYR A   1      75.576  73.534  19.944  0.00  0.00    +0.053 C 
BRANCH  77  78
ATOM     78  CG  TYR A   1      74.622  72.911  20.961  0.00  0.00    -0.020 A 
ATOM     79  CD2 TYR A   1      74.840  73.055  22.330  0.00  0.00    -0.001 A 
ATOM     80  CE2 TYR A   1      73.966  72.494  23.268  0.00  0.00    +0.036 A 
ATOM     81  CZ  TYR A   1      72.861  71.780  22.843  0.00  0.00    +0.134 A 
ATOM     82  CE1 TYR A   1      72.622  71.621  21.489  0.00  0.00    +0.036 A 
ATOM     83  CD1 TYR A   1      73.503  72.186  20.554  0.00  0.00    -0.001 A 
BRANCH  81  84
ATOM     84  OH  TYR A   1      71.996  71.229  23.776  0.00  0.00    -0.506 OA
ATOM     85  HH  TYR A   1      72.318  71.440  24.688  0.00  0.00    +0.292 HD
ENDBRANCH  81  84
ENDBRANCH  77  78
ENDBRANCH  74  77
ENDBRANCH  70  74
ENDBRANCH  69  72
ENDBRANCH  65  69
ENDBRANCH  64  67
ENDBRANCH  60  64
ENDBRANCH  59  61
BRANCH  59  86
ATOM     86  CB  LEU A   4      82.463  64.841  17.754  0.00  0.00    +0.029 C 
BRANCH  86  87
ATOM     87  CG  LEU A   4      82.845  66.029  16.874  0.00  0.00    +0.002 C 
ATOM     88  CD2 LEU A   4      84.240  66.508  17.246  0.00  0.00    +0.000 C 
ATOM     89  CD1 LEU A   4      82.759  65.668  15.395  0.00  0.00    +0.000 C 
ENDBRANCH  86  87
ENDBRANCH  59  86
ENDBRANCH  55  59
ENDBRANCH  54  57
BRANCH  54  90
ATOM     90  CB  GLN A   5      79.493  60.033  18.324  0.00  0.00    +0.039 C 
BRANCH  90  91
ATOM     91  CG  GLN A   5      78.831  59.767  16.977  0.00  0.00    +0.087 C 
BRANCH  91  92
ATOM     92  CD  GLN A   5      77.482  59.072  17.104  0.00  0.00    +0.219 C 
ATOM     93  NE2 GLN A   5      77.447  57.974  17.851  0.00  0.00    -0.329 N 
ATOM     94 HE21 GLN A   5      78.312  57.636  18.319  0.00  0.00    +0.145 HD
ATOM     95 HE22 GLN A   5      76.555  57.453  17.968  0.00  0.00    +0.145 HD
ATOM     96  OE1 GLN A   5      76.485  59.516  16.527  0.00  0.00    -0.275 OA
ENDBRANCH  91  92
ENDBRANCH  90  91
ENDBRANCH  54  90
ENDBRANCH  50  54
ENDBRANCH   1  51
BRANCH   1  97
ATOM     97  CB  SER A   6      82.189  57.168  15.653  0.00  0.00    +0.166 C 
BRANCH  97  98
ATOM     98  OG  SER A   6      80.837  56.745  15.643  0.00  0.00    -0.380 OA
ATOM     99  H   SER A   6      80.541  56.611  14.708  0.00  0.00    +0.211 HD
ENDBRANCH  97  98
ENDBRANCH   1  97
TORSDOF 39
REMARK  Name = ../refined-set-2016/3f7h/3f7h_pocket.pdb
REMARK  127 active torsions:
REMARK  status: ('A' for Active; 'I' for Inactive)
REMARK    1  A    between atoms: _1  and  _3
REMARK    2  A    between atoms: _3  and  _4
REMARK    3  A    between atoms: _3  and  _6
REMARK    4  A    between atoms: _9  and  _11
REMARK    5  A    between atoms: _11  and  _12
REMARK    6  A    between atoms: _11  and  _14
REMARK    7  A    between atoms: _14  and  _15
REMARK    8  A    between atoms: _18  and  _20
REMARK    9  A    between atoms: _20  and  _21
REMARK   10  A    between atoms: _20  and  _23
REMARK   11  A    between atoms: _23  and  _24
REMARK   12  A    between atoms: _30  and  _32
REMARK   13  A    between atoms: _32  and  _33
REMARK   14  A    between atoms: _32  and  _35
REMARK   15  A    between atoms: _35  and  _36
REMARK   16  A    between atoms: _42  and  _44
REMARK   17  A    between atoms: _44  and  _45
REMARK   18  A    between atoms: _44  and  _47
REMARK   19  A    between atoms: _47  and  _48
REMARK   20  A    between atoms: _53  and  _55
REMARK   21  A    between atoms: _55  and  _56
REMARK   22  A    between atoms: _55  and  _58
REMARK   23  A    between atoms: _58  and  _59
REMARK   24  A    between atoms: _62  and  _64
REMARK   25  A    between atoms: _64  and  _65
REMARK   26  A    between atoms: _64  and  _67
REMARK   27  A    between atoms: _67  and  _68
REMARK   28  A    between atoms: _73  and  _75
REMARK   29  A    between atoms: _75  and  _76
REMARK   30  A    between atoms: _75  and  _78
REMARK   31  A    between atoms: _78  and  _79
REMARK   32  A    between atoms: _79  and  _80
REMARK   33  A    between atoms: _85  and  _87
REMARK   34  A    between atoms: _87  and  _88
REMARK   35  A    between atoms: _87  and  _90
REMARK   36  A    between atoms: _90  and  _91
REMARK   37  A    between atoms: _94  and  _96
REMARK   38  A    between atoms: _96  and  _97
REMARK   39  A    between atoms: _96  and  _99
REMARK   40  A    between atoms: _99  and  _100
REMARK   41  A    between atoms: _100  and  _101
REMARK   42  A    between atoms: _101  and  _102
REMARK   43  A    between atoms: _102  and  _103
REMARK   44  A    between atoms: _107  and  _109
REMARK   45  A    between atoms: _109  and  _110
REMARK   46  A    between atoms: _109  and  _112
REMARK   47  A    between atoms: _115  and  _117
REMARK   48  A    between atoms: _117  and  _118
REMARK   49  A    between atoms: _117  and  _120
REMARK   50  A    between atoms: _120  and  _121
REMARK   51  A    between atoms: _121  and  _122
REMARK   52  A    between atoms: _122  and  _123
REMARK   53  A    between atoms: _132  and  _134
REMARK   54  A    between atoms: _134  and  _135
REMARK   55  A    between atoms: _134  and  _137
REMARK   56  A    between atoms: _139  and  _141
REMARK   57  A    between atoms: _141  and  _142
REMARK   58  A    between atoms: _141  and  _144
REMARK   59  A    between atoms: _144  and  _145
REMARK   60  A    between atoms: _150  and  _151
REMARK   61  A    between atoms: _153  and  _155
REMARK   62  A    between atoms: _155  and  _156
REMARK   63  A    between atoms: _158  and  _160
REMARK   64  A    between atoms: _160  and  _161
REMARK   65  A    between atoms: _163  and  _165
REMARK   66  A    between atoms: _165  and  _166
REMARK   67  A    between atoms: _165  and  _168
REMARK   68  A    between atoms: _168  and  _169
REMARK   69  A    between atoms: _172  and  _174
REMARK   70  A    between atoms: _174  and  _175
REMARK   71  A    between atoms: _174  and  _177
REMARK   72  A    between atoms: _177  and  _178
REMARK   73  A    between atoms: _178  and  _179
REMARK   74  A    between atoms: _184  and  _186
REMARK   75  A    between atoms: _186  and  _187
REMARK   76  A    between atoms: _186  and  _189
REMARK   77  A    between atoms: _189  and  _190
REMARK   78  A    between atoms: _192  and  _194
REMARK   79  A    between atoms: _194  and  _195
REMARK   80  A    between atoms: _194  and  _197
REMARK   81  A    between atoms: _197  and  _198
REMARK   82  A    between atoms: _208  and  _210
REMARK   83  A    between atoms: _210  and  _211
REMARK   84  A    between atoms: _210  and  _213
REMARK   85  A    between atoms: _213  and  _214
REMARK   86  A    between atoms: _214  and  _215
REMARK   87  A    between atoms: _215  and  _216
REMARK   88  A    between atoms: _216  and  _217
REMARK   89  A    between atoms: _221  and  _223
REMARK   90  A    between atoms: _223  and  _224
REMARK   91  A    between atoms: _223  and  _226
REMARK   92  A    between atoms: _226  and  _227
REMARK   93  A    between atoms: _227  and  _228
REMARK   94  A    between atoms: _228  and  _229
REMARK   95  A    between atoms: _238  and  _240
REMARK   96  A    between atoms: _240  and  _241
REMARK   97  A    between atoms: _240  and  _243
REMARK   98  A    between atoms: _243  and  _244
REMARK   99  A    between atoms: _247  and  _249
REMARK  100  A    between atoms: _249  and  _250
REMARK  101  A    between atoms: _249  and  _252
REMARK  102  A    between atoms: _252  and  _253
REMARK  103  A    between atoms: _257  and  _258
REMARK  104  A    between atoms: _263  and  _265
REMARK  105  A    between atoms: _265  and  _266
REMARK  106  A    between atoms: _265  and  _268
REMARK  107  A    between atoms: _268  and  _269
REMARK  108  A    between atoms: _269  and  _270
REMARK  109  A    between atoms: _273  and  _275
REMARK  110  A    between atoms: _275  and  _276
REMARK  111  A    between atoms: _275  and  _278
REMARK  112  A    between atoms: _278  and  _279
REMARK  113  A    between atoms: _284  and  _286
REMARK  114  A    between atoms: _286  and  _287
REMARK  115  A    between atoms: _286  and  _289
REMARK  116  A    between atoms: _289  and  _290
REMARK  117  A    between atoms: _290  and  _291
REMARK  118  A    between atoms: _291  and  _292
REMARK  119  A    between atoms: _292  and  _293
REMARK  120  A    between atoms: _297  and  _299
REMARK  121  A    between atoms: _299  and  _300
REMARK  122  A    between atoms: _299  and  _302
REMARK  123  A    between atoms: _302  and  _303
REMARK  124  A    between atoms: _313  and  _315
REMARK  125  A    between atoms: _315  and  _316
REMARK  126  A    between atoms: _315  and  _318
REMARK  127  A    between atoms: _318  and  _319
REMARK                            x       y       z     vdW  Elec       q    Type
REMARK                         _______ _______ _______ _____ _____    ______ ____
ROOT
ATOM      1  CA  ASP A   2      93.141  64.687  19.104  0.00  0.00    +0.160 C 
ENDROOT
BRANCH   1   2
ATOM      2  C   ASP A   2      91.898  65.577  19.090  0.00  0.00    +0.244 C 
ATOM      3  N   PRO A   3      91.294  65.816  20.263  0.00  0.00    -0.273 N 
ATOM      4  CD  PRO A   3      91.655  65.285  21.594  0.00  0.00    +0.094 C 
ATOM      5  CG  PRO A   3      90.405  65.485  22.395  0.00  0.00    +0.024 C 
ATOM      6  CB  PRO A   3      89.805  66.740  21.825  0.00  0.00    +0.030 C 
ATOM      7  CA  PRO A   3      90.072  66.620  20.324  0.00  0.00    +0.140 C 
ATOM      8  O   ASP A   2      91.473  66.016  18.022  0.00  0.00    -0.273 OA
BRANCH   7   9
ATOM      9  C   PRO A   3      90.142  67.997  19.651  0.00  0.00    +0.227 C 
ATOM     10  O   PRO A   3      89.184  68.377  18.983  0.00  0.00    -0.286 OA
ENDBRANCH   7   9
ENDBRANCH   1   2
BRANCH   1  13
ATOM     11  C   ASP A   1      92.501  62.316  19.053  0.00  0.00    +0.239 C 
ATOM     12  O   ASP A   1      92.559  62.198  20.277  0.00  0.00    -0.274 OA
ATOM     13  N   ASP A   2      92.787  63.450  18.409  0.00  0.00    -0.297 N 
ATOM     14  H   ASP A   2      92.757  63.454  17.369  0.00  0.00    +0.150 HD
BRANCH  11  15
ATOM     15  CA  ASP A   1      92.089  61.132  18.182  0.00  0.00    +0.156 C 
BRANCH  15  16
ATOM     16  N   ASP A   1      92.691  59.893  18.704  0.00  0.00    -0.238 NA
ATOM     17  H   ASP A   1      92.076  59.089  18.943  0.00  0.00    +0.142 HD
ENDBRANCH  15  16
BRANCH  15  18
ATOM     18  CB  ASP A   1      90.551  61.064  18.175  0.00  0.00    +0.140 C 
BRANCH  18  19
ATOM     19  CG  ASP A   1      89.974  60.455  16.913  0.00  0.00    +0.367 C 
ATOM     20  OD2 ASP A   1      88.742  60.249  16.901  0.00  0.00    -0.246 OA
ATOM     21  OD1 ASP A   1      90.715  60.176  15.950  0.00  0.00    -0.246 OA
ENDBRANCH  18  19
ENDBRANCH  15  18
ENDBRANCH  11  15
ENDBRANCH   1  13
BRANCH   1  22
ATOM     22  CB  ASP A   2      94.314  65.375  18.402  0.00  0.00    +0.143 C 
BRANCH  22  23
ATOM     23  CG  ASP A   2      94.811  66.611  19.145  0.00  0.00    +0.367 C 
ATOM     24  OD2 ASP A   2      93.997  67.468  19.518  0.00  0.00    -0.246 OA
ATOM     25  OD1 ASP A   2      96.029  66.730  19.350  0.00  0.00    -0.246 OA
ENDBRANCH  22  23
ENDBRANCH   1  22
TORSDOF 9
REMARK  Name = ../refined-set-2016/3f7h/3f7h_pocket.pdb
REMARK  127 active torsions:
REMARK  status: ('A' for Active; 'I' for Inactive)
REMARK    1  A    between atoms: _1  and  _3
REMARK    2  A    between atoms: _3  and  _4
REMARK    3  A    between atoms: _3  and  _6
REMARK    4  A    between atoms: _9  and  _11
REMARK    5  A    between atoms: _11  and  _12
REMARK    6  A    between atoms: _11  and  _14
REMARK    7  A    between atoms: _14  and  _15
REMARK    8  A    between atoms: _18  and  _20
REMARK    9  A    between atoms: _20  and  _21
REMARK   10  A    between atoms: _20  and  _23
REMARK   11  A    between atoms: _23  and  _24
REMARK   12  A    between atoms: _30  and  _32
REMARK   13  A    between atoms: _32  and  _33
REMARK   14  A    between atoms: _32  and  _35
REMARK   15  A    between atoms: _35  and  _36
REMARK   16  A    between atoms: _42  and  _44
REMARK   17  A    between atoms: _44  and  _45
REMARK   18  A    between atoms: _44  and  _47
REMARK   19  A    between atoms: _47  and  _48
REMARK   20  A    between atoms: _53  and  _55
REMARK   21  A    between atoms: _55  and  _56
REMARK   22  A    between atoms: _55  and  _58
REMARK   23  A    between atoms: _58  and  _59
REMARK   24  A    between atoms: _62  and  _64
REMARK   25  A    between atoms: _64  and  _65
REMARK   26  A    between atoms: _64  and  _67
REMARK   27  A    between atoms: _67  and  _68
REMARK   28  A    between atoms: _73  and  _75
REMARK   29  A    between atoms: _75  and  _76
REMARK   30  A    between atoms: _75  and  _78
REMARK   31  A    between atoms: _78  and  _79
REMARK   32  A    between atoms: _79  and  _80
REMARK   33  A    between atoms: _85  and  _87
REMARK   34  A    between atoms: _87  and  _88
REMARK   35  A    between atoms: _87  and  _90
REMARK   36  A    between atoms: _90  and  _91
REMARK   37  A    between atoms: _94  and  _96
REMARK   38  A    between atoms: _96  and  _97
REMARK   39  A    between atoms: _96  and  _99
REMARK   40  A    between atoms: _99  and  _100
REMARK   41  A    between atoms: _100  and  _101
REMARK   42  A    between atoms: _101  and  _102
REMARK   43  A    between atoms: _102  and  _103
REMARK   44  A    between atoms: _107  and  _109
REMARK   45  A    between atoms: _109  and  _110
REMARK   46  A    between atoms: _109  and  _112
REMARK   47  A    between atoms: _115  and  _117
REMARK   48  A    between atoms: _117  and  _118
REMARK   49  A    between atoms: _117  and  _120
REMARK   50  A    between atoms: _120  and  _121
REMARK   51  A    between atoms: _121  and  _122
REMARK   52  A    between atoms: _122  and  _123
REMARK   53  A    between atoms: _132  and  _134
REMARK   54  A    between atoms: _134  and  _135
REMARK   55  A    between atoms: _134  and  _137
REMARK   56  A    between atoms: _139  and  _141
REMARK   57  A    between atoms: _141  and  _142
REMARK   58  A    between atoms: _141  and  _144
REMARK   59  A    between atoms: _144  and  _145
REMARK   60  A    between atoms: _150  and  _151
REMARK   61  A    between atoms: _153  and  _155
REMARK   62  A    between atoms: _155  and  _156
REMARK   63  A    between atoms: _158  and  _160
REMARK   64  A    between atoms: _160  and  _161
REMARK   65  A    between atoms: _163  and  _165
REMARK   66  A    between atoms: _165  and  _166
REMARK   67  A    between atoms: _165  and  _168
REMARK   68  A    between atoms: _168  and  _169
REMARK   69  A    between atoms: _172  and  _174
REMARK   70  A    between atoms: _174  and  _175
REMARK   71  A    between atoms: _174  and  _177
REMARK   72  A    between atoms: _177  and  _178
REMARK   73  A    between atoms: _178  and  _179
REMARK   74  A    between atoms: _184  and  _186
REMARK   75  A    between atoms: _186  and  _187
REMARK   76  A    between atoms: _186  and  _189
REMARK   77  A    between atoms: _189  and  _190
REMARK   78  A    between atoms: _192  and  _194
REMARK   79  A    between atoms: _194  and  _195
REMARK   80  A    between atoms: _194  and  _197
REMARK   81  A    between atoms: _197  and  _198
REMARK   82  A    between atoms: _208  and  _210
REMARK   83  A    between atoms: _210  and  _211
REMARK   84  A    between atoms: _210  and  _213
REMARK   85  A    between atoms: _213  and  _214
REMARK   86  A    between atoms: _214  and  _215
REMARK   87  A    between atoms: _215  and  _216
REMARK   88  A    between atoms: _216  and  _217
REMARK   89  A    between atoms: _221  and  _223
REMARK   90  A    between atoms: _223  and  _224
REMARK   91  A    between atoms: _223  and  _226
REMARK   92  A    between atoms: _226  and  _227
REMARK   93  A    between atoms: _227  and  _228
REMARK   94  A    between atoms: _228  and  _229
REMARK   95  A    between atoms: _238  and  _240
REMARK   96  A    between atoms: _240  and  _241
REMARK   97  A    between atoms: _240  and  _243
REMARK   98  A    between atoms: _243  and  _244
REMARK   99  A    between atoms: _247  and  _249
REMARK  100  A    between atoms: _249  and  _250
REMARK  101  A    between atoms: _249  and  _252
REMARK  102  A    between atoms: _252  and  _253
REMARK  103  A    between atoms: _257  and  _258
REMARK  104  A    between atoms: _263  and  _265
REMARK  105  A    between atoms: _265  and  _266
REMARK  106  A    between atoms: _265  and  _268
REMARK  107  A    between atoms: _268  and  _269
REMARK  108  A    between atoms: _269  and  _270
REMARK  109  A    between atoms: _273  and  _275
REMARK  110  A    between atoms: _275  and  _276
REMARK  111  A    between atoms: _275  and  _278
REMARK  112  A    between atoms: _278  and  _279
REMARK  113  A    between atoms: _284  and  _286
REMARK  114  A    between atoms: _286  and  _287
REMARK  115  A    between atoms: _286  and  _289
REMARK  116  A    between atoms: _289  and  _290
REMARK  117  A    between atoms: _290  and  _291
REMARK  118  A    between atoms: _291  and  _292
REMARK  119  A    between atoms: _292  and  _293
REMARK  120  A    between atoms: _297  and  _299
REMARK  121  A    between atoms: _299  and  _300
REMARK  122  A    between atoms: _299  and  _302
REMARK  123  A    between atoms: _302  and  _303
REMARK  124  A    between atoms: _313  and  _315
REMARK  125  A    between atoms: _315  and  _316
REMARK  126  A    between atoms: _315  and  _318
REMARK  127  A    between atoms: _318  and  _319
REMARK                            x       y       z     vdW  Elec       q    Type
REMARK                         _______ _______ _______ _____ _____    ______ ____
ROOT
ATOM      1  C   GLU A   1      87.771  68.287  15.461  0.00  0.00    +0.238 C 
ATOM      2  N   HIS A   2      87.940  69.143  16.470  0.00  0.00    -0.298 N 
ATOM      3  H   HIS A   2      88.660  68.934  17.191  0.00  0.00    +0.150 HD
ATOM      4  O   GLU A   1      86.922  68.438  14.592  0.00  0.00    -0.274 OA
ENDROOT
BRANCH   1   5
ATOM      5  CA  GLU A   1      88.704  67.076  15.412  0.00  0.00    +0.145 C 
BRANCH   5   6
ATOM      6  N   GLU A   1      90.063  67.431  15.823  0.00  0.00    -0.238 NA
ATOM      7  H   GLU A   1      90.463  66.998  16.680  0.00  0.00    +0.142 HD
ENDBRANCH   5   6
BRANCH   5   8
ATOM      8  CB  GLU A   1      88.140  65.938  16.273  0.00  0.00    +0.038 C 
BRANCH   8   9
ATOM      9  CG  GLU A   1      88.928  64.623  16.195  0.00  0.00    +0.116 C 
BRANCH   9  10
ATOM     10  CD  GLU A   1      89.038  64.072  14.783  0.00  0.00    +0.365 C 
ATOM     11  OE2 GLU A   1      90.173  63.912  14.284  0.00  0.00    -0.246 OA
ATOM     12  OE1 GLU A   1      87.990  63.796  14.165  0.00  0.00    -0.246 OA
ENDBRANCH   9  10
ENDBRANCH   8   9
ENDBRANCH   5   8
ENDBRANCH   1   5
BRANCH   2  13
ATOM     13  CA  HIS A   2      87.141  70.374  16.597  0.00  0.00    +0.143 C 
BRANCH  13  14
ATOM     14  C   HIS A   2      87.348  71.259  15.367  0.00  0.00    +0.227 C 
ATOM     15  O   HIS A   2      86.388  71.740  14.771  0.00  0.00    -0.286 OA
ENDBRANCH  13  14
BRANCH  13  16
ATOM     16  CB  HIS A   2      87.531  71.151  17.866  0.00  0.00    +0.075 C 
BRANCH  16  17
ATOM     17  CG  HIS A   2      86.432  72.001  18.439  0.00  0.00    +0.082 A 
ATOM     18  ND1 HIS A   2      86.348  72.281  19.784  0.00  0.00    -0.227 NA
ATOM     19  CE1 HIS A   2      85.290  73.042  20.011  0.00  0.00    +0.199 A 
ATOM     20  NE2 HIS A   2      84.684  73.269  18.861  0.00  0.00    -0.221 NA
ATOM     21  CD2 HIS A   2      85.377  72.628  17.860  0.00  0.00    +0.115 A 
ENDBRANCH  16  17
ENDBRANCH  13  16
ENDBRANCH   2  13
TORSDOF 9
REMARK  Name = ../refined-set-2016/3f7h/3f7h_pocket.pdb
REMARK  127 active torsions:
REMARK  status: ('A' for Active; 'I' for Inactive)
REMARK    1  A    between atoms: _1  and  _3
REMARK    2  A    between atoms: _3  and  _4
REMARK    3  A    between atoms: _3  and  _6
REMARK    4  A    between atoms: _9  and  _11
REMARK    5  A    between atoms: _11  and  _12
REMARK    6  A    between atoms: _11  and  _14
REMARK    7  A    between atoms: _14  and  _15
REMARK    8  A    between atoms: _18  and  _20
REMARK    9  A    between atoms: _20  and  _21
REMARK   10  A    between atoms: _20  and  _23
REMARK   11  A    between atoms: _23  and  _24
REMARK   12  A    between atoms: _30  and  _32
REMARK   13  A    between atoms: _32  and  _33
REMARK   14  A    between atoms: _32  and  _35
REMARK   15  A    between atoms: _35  and  _36
REMARK   16  A    between atoms: _42  and  _44
REMARK   17  A    between atoms: _44  and  _45
REMARK   18  A    between atoms: _44  and  _47
REMARK   19  A    between atoms: _47  and  _48
REMARK   20  A    between atoms: _53  and  _55
REMARK   21  A    between atoms: _55  and  _56
REMARK   22  A    between atoms: _55  and  _58
REMARK   23  A    between atoms: _58  and  _59
REMARK   24  A    between atoms: _62  and  _64
REMARK   25  A    between atoms: _64  and  _65
REMARK   26  A    between atoms: _64  and  _67
REMARK   27  A    between atoms: _67  and  _68
REMARK   28  A    between atoms: _73  and  _75
REMARK   29  A    between atoms: _75  and  _76
REMARK   30  A    between atoms: _75  and  _78
REMARK   31  A    between atoms: _78  and  _79
REMARK   32  A    between atoms: _79  and  _80
REMARK   33  A    between atoms: _85  and  _87
REMARK   34  A    between atoms: _87  and  _88
REMARK   35  A    between atoms: _87  and  _90
REMARK   36  A    between atoms: _90  and  _91
REMARK   37  A    between atoms: _94  and  _96
REMARK   38  A    between atoms: _96  and  _97
REMARK   39  A    between atoms: _96  and  _99
REMARK   40  A    between atoms: _99  and  _100
REMARK   41  A    between atoms: _100  and  _101
REMARK   42  A    between atoms: _101  and  _102
REMARK   43  A    between atoms: _102  and  _103
REMARK   44  A    between atoms: _107  and  _109
REMARK   45  A    between atoms: _109  and  _110
REMARK   46  A    between atoms: _109  and  _112
REMARK   47  A    between atoms: _115  and  _117
REMARK   48  A    between atoms: _117  and  _118
REMARK   49  A    between atoms: _117  and  _120
REMARK   50  A    between atoms: _120  and  _121
REMARK   51  A    between atoms: _121  and  _122
REMARK   52  A    between atoms: _122  and  _123
REMARK   53  A    between atoms: _132  and  _134
REMARK   54  A    between atoms: _134  and  _135
REMARK   55  A    between atoms: _134  and  _137
REMARK   56  A    between atoms: _139  and  _141
REMARK   57  A    between atoms: _141  and  _142
REMARK   58  A    between atoms: _141  and  _144
REMARK   59  A    between atoms: _144  and  _145
REMARK   60  A    between atoms: _150  and  _151
REMARK   61  A    between atoms: _153  and  _155
REMARK   62  A    between atoms: _155  and  _156
REMARK   63  A    between atoms: _158  and  _160
REMARK   64  A    between atoms: _160  and  _161
REMARK   65  A    between atoms: _163  and  _165
REMARK   66  A    between atoms: _165  and  _166
REMARK   67  A    between atoms: _165  and  _168
REMARK   68  A    between atoms: _168  and  _169
REMARK   69  A    between atoms: _172  and  _174
REMARK   70  A    between atoms: _174  and  _175
REMARK   71  A    between atoms: _174  and  _177
REMARK   72  A    between atoms: _177  and  _178
REMARK   73  A    between atoms: _178  and  _179
REMARK   74  A    between atoms: _184  and  _186
REMARK   75  A    between atoms: _186  and  _187
REMARK   76  A    between atoms: _186  and  _189
REMARK   77  A    between atoms: _189  and  _190
REMARK   78  A    between atoms: _192  and  _194
REMARK   79  A    between atoms: _194  and  _195
REMARK   80  A    between atoms: _194  and  _197
REMARK   81  A    between atoms: _197  and  _198
REMARK   82  A    between atoms: _208  and  _210
REMARK   83  A    between atoms: _210  and  _211
REMARK   84  A    between atoms: _210  and  _213
REMARK   85  A    between atoms: _213  and  _214
REMARK   86  A    between atoms: _214  and  _215
REMARK   87  A    between atoms: _215  and  _216
REMARK   88  A    between atoms: _216  and  _217
REMARK   89  A    between atoms: _221  and  _223
REMARK   90  A    between atoms: _223  and  _224
REMARK   91  A    between atoms: _223  and  _226
REMARK   92  A    between atoms: _226  and  _227
REMARK   93  A    between atoms: _227  and  _228
REMARK   94  A    between atoms: _228  and  _229
REMARK   95  A    between atoms: _238  and  _240
REMARK   96  A    between atoms: _240  and  _241
REMARK   97  A    between atoms: _240  and  _243
REMARK   98  A    between atoms: _243  and  _244
REMARK   99  A    between atoms: _247  and  _249
REMARK  100  A    between atoms: _249  and  _250
REMARK  101  A    between atoms: _249  and  _252
REMARK  102  A    between atoms: _252  and  _253
REMARK  103  A    between atoms: _257  and  _258
REMARK  104  A    between atoms: _263  and  _265
REMARK  105  A    between atoms: _265  and  _266
REMARK  106  A    between atoms: _265  and  _268
REMARK  107  A    between atoms: _268  and  _269
REMARK  108  A    between atoms: _269  and  _270
REMARK  109  A    between atoms: _273  and  _275
REMARK  110  A    between atoms: _275  and  _276
REMARK  111  A    between atoms: _275  and  _278
REMARK  112  A    between atoms: _278  and  _279
REMARK  113  A    between atoms: _284  and  _286
REMARK  114  A    between atoms: _286  and  _287
REMARK  115  A    between atoms: _286  and  _289
REMARK  116  A    between atoms: _289  and  _290
REMARK  117  A    between atoms: _290  and  _291
REMARK  118  A    between atoms: _291  and  _292
REMARK  119  A    between atoms: _292  and  _293
REMARK  120  A    between atoms: _297  and  _299
REMARK  121  A    between atoms: _299  and  _300
REMARK  122  A    between atoms: _299  and  _302
REMARK  123  A    between atoms: _302  and  _303
REMARK  124  A    between atoms: _313  and  _315
REMARK  125  A    between atoms: _315  and  _316
REMARK  126  A    between atoms: _315  and  _318
REMARK  127  A    between atoms: _318  and  _319
REMARK                            x       y       z     vdW  Elec       q    Type
REMARK                         _______ _______ _______ _____ _____    ______ ____
ROOT
ATOM      1  CA  TRP A   2      84.563  69.515  11.641  0.00  0.00    +0.153 C 
ENDROOT
BRANCH   1   3
ATOM      2  C   LYS A   1      86.886  69.760  10.900  0.00  0.00    +0.238 C 
ATOM      3  N   TRP A   2      86.009  69.569  11.880  0.00  0.00    -0.297 N 
ATOM      4  H   TRP A   2      86.361  69.454  12.852  0.00  0.00    +0.150 HD
ATOM      5  O   LYS A   1      86.563  70.100   9.767  0.00  0.00    -0.274 OA
BRANCH   2   6
ATOM      6  CA  LYS A   1      88.361  69.563  11.252  0.00  0.00    +0.145 C 
BRANCH   6   7
ATOM      7  N   LYS A   1      88.725  70.317  12.444  0.00  0.00    -0.238 NA
ATOM      8  H   LYS A   1      89.091  69.803  13.271  0.00  0.00    +0.142 HD
ENDBRANCH   6   7
BRANCH   6   9
ATOM      9  CB  LYS A   1      88.659  68.070  11.450  0.00  0.00    +0.026 C 
BRANCH   9  10
ATOM     10  CG  LYS A   1      88.267  67.194  10.267  0.00  0.00    -0.000 C 
BRANCH  10  11
ATOM     11  CD  LYS A   1      88.767  65.758  10.418  0.00  0.00    -0.024 C 
BRANCH  11  12
ATOM     12  CE  LYS A   1      88.412  64.935   9.179  0.00  0.00    -0.086 C 
BRANCH  12  13
ATOM     13  NZ  LYS A   1      89.034  63.574   9.173  0.00  0.00    +0.380 N 
ATOM     14  HZ1 LYS A   1      88.710  63.042  10.006  0.00  0.00    -0.089 HD
ATOM     15  HZ2 LYS A   1      90.069  63.667   9.201  0.00  0.00    -0.089 HD
ATOM     16  HZ3 LYS A   1      88.754  63.070   8.308  0.00  0.00    -0.089 HD
ENDBRANCH  12  13
ENDBRANCH  11  12
ENDBRANCH  10  11
ENDBRANCH   9  10
ENDBRANCH   6   9
ENDBRANCH   2   6
ENDBRANCH   1   3
BRANCH   1  17
ATOM     17  C   TRP A   2      83.831  70.836  11.873  0.00  0.00    +0.241 C 
ATOM     18  N   PHE A   3      84.321  71.656  12.803  0.00  0.00    -0.298 N 
ATOM     19  H   PHE A   3      85.195  71.391  13.301  0.00  0.00    +0.150 HD
ATOM     20  O   TRP A   2      82.822  71.101  11.211  0.00  0.00    -0.273 OA
BRANCH  18  21
ATOM     21  CA  PHE A   3      83.661  72.923  13.143  0.00  0.00    +0.141 C 
BRANCH  21  22
ATOM     22  C   PHE A   3      84.630  74.113  13.097  0.00  0.00    +0.227 C 
ATOM     23  O   PHE A   3      84.798  74.818  14.092  0.00  0.00    -0.286 OA
ENDBRANCH  21  22
BRANCH  21  24
ATOM     24  CB  PHE A   3      83.004  72.836  14.530  0.00  0.00    +0.054 C 
BRANCH  24  25
ATOM     25  CG  PHE A   3      82.261  71.551  14.774  0.00  0.00    -0.020 A 
ATOM     26  CD2 PHE A   3      82.679  70.671  15.763  0.00  0.00    -0.004 A 
ATOM     27  CE2 PHE A   3      82.000  69.487  15.995  0.00  0.00    -0.000 A 
ATOM     28  CZ  PHE A   3      80.887  69.166  15.233  0.00  0.00    -0.000 A 
ATOM     29  CE1 PHE A   3      80.459  70.033  14.243  0.00  0.00    -0.000 A 
ATOM     30  CD1 PHE A   3      81.144  71.224  14.020  0.00  0.00    -0.004 A 
ENDBRANCH  24  25
ENDBRANCH  21  24
ENDBRANCH  18  21
ENDBRANCH   1  17
BRANCH   1  31
ATOM     31  CB  TRP A   2      83.924  68.417  12.496  0.00  0.00    +0.057 C 
BRANCH  31  32
ATOM     32  CG  TRP A   2      84.443  67.043  12.203  0.00  0.00    -0.002 A 
ATOM     33  CD1 TRP A   2      85.231  66.277  13.016  0.00  0.00    +0.068 A 
ATOM     34  NE1 TRP A   2      85.509  65.077  12.414  0.00  0.00    -0.352 N 
ATOM     35  HE1 TRP A   2      86.087  64.316  12.825  0.00  0.00    +0.166 HD
ATOM     36  CE2 TRP A   2      84.905  65.040  11.185  0.00  0.00    +0.056 A 
ATOM     37  CZ2 TRP A   2      84.897  64.035  10.217  0.00  0.00    +0.017 A 
ATOM     38  CH2 TRP A   2      84.195  64.272   9.065  0.00  0.00    +0.001 A 
ATOM     39  CZ3 TRP A   2      83.502  65.476   8.864  0.00  0.00    +0.000 A 
ATOM     40  CE3 TRP A   2      83.507  66.477   9.828  0.00  0.00    +0.001 A 
ATOM     41  CD2 TRP A   2      84.224  66.264  11.012  0.00  0.00    +0.013 A 
ENDBRANCH  31  32
ENDBRANCH   1  31
TORSDOF 15
REMARK  Name = ../refined-set-2016/3f7h/3f7h_pocket.pdb
REMARK  127 active torsions:
REMARK  status: ('A' for Active; 'I' for Inactive)
REMARK    1  A    between atoms: _1  and  _3
REMARK    2  A    between atoms: _3  and  _4
REMARK    3  A    between atoms: _3  and  _6
REMARK    4  A    between atoms: _9  and  _11
REMARK    5  A    between atoms: _11  and  _12
REMARK    6  A    between atoms: _11  and  _14
REMARK    7  A    between atoms: _14  and  _15
REMARK    8  A    between atoms: _18  and  _20
REMARK    9  A    between atoms: _20  and  _21
REMARK   10  A    between atoms: _20  and  _23
REMARK   11  A    between atoms: _23  and  _24
REMARK   12  A    between atoms: _30  and  _32
REMARK   13  A    between atoms: _32  and  _33
REMARK   14  A    between atoms: _32  and  _35
REMARK   15  A    between atoms: _35  and  _36
REMARK   16  A    between atoms: _42  and  _44
REMARK   17  A    between atoms: _44  and  _45
REMARK   18  A    between atoms: _44  and  _47
REMARK   19  A    between atoms: _47  and  _48
REMARK   20  A    between atoms: _53  and  _55
REMARK   21  A    between atoms: _55  and  _56
REMARK   22  A    between atoms: _55  and  _58
REMARK   23  A    between atoms: _58  and  _59
REMARK   24  A    between atoms: _62  and  _64
REMARK   25  A    between atoms: _64  and  _65
REMARK   26  A    between atoms: _64  and  _67
REMARK   27  A    between atoms: _67  and  _68
REMARK   28  A    between atoms: _73  and  _75
REMARK   29  A    between atoms: _75  and  _76
REMARK   30  A    between atoms: _75  and  _78
REMARK   31  A    between atoms: _78  and  _79
REMARK   32  A    between atoms: _79  and  _80
REMARK   33  A    between atoms: _85  and  _87
REMARK   34  A    between atoms: _87  and  _88
REMARK   35  A    between atoms: _87  and  _90
REMARK   36  A    between atoms: _90  and  _91
REMARK   37  A    between atoms: _94  and  _96
REMARK   38  A    between atoms: _96  and  _97
REMARK   39  A    between atoms: _96  and  _99
REMARK   40  A    between atoms: _99  and  _100
REMARK   41  A    between atoms: _100  and  _101
REMARK   42  A    between atoms: _101  and  _102
REMARK   43  A    between atoms: _102  and  _103
REMARK   44  A    between atoms: _107  and  _109
REMARK   45  A    between atoms: _109  and  _110
REMARK   46  A    between atoms: _109  and  _112
REMARK   47  A    between atoms: _115  and  _117
REMARK   48  A    between atoms: _117  and  _118
REMARK   49  A    between atoms: _117  and  _120
REMARK   50  A    between atoms: _120  and  _121
REMARK   51  A    between atoms: _121  and  _122
REMARK   52  A    between atoms: _122  and  _123
REMARK   53  A    between atoms: _132  and  _134
REMARK   54  A    between atoms: _134  and  _135
REMARK   55  A    between atoms: _134  and  _137
REMARK   56  A    between atoms: _139  and  _141
REMARK   57  A    between atoms: _141  and  _142
REMARK   58  A    between atoms: _141  and  _144
REMARK   59  A    between atoms: _144  and  _145
REMARK   60  A    between atoms: _150  and  _151
REMARK   61  A    between atoms: _153  and  _155
REMARK   62  A    between atoms: _155  and  _156
REMARK   63  A    between atoms: _158  and  _160
REMARK   64  A    between atoms: _160  and  _161
REMARK   65  A    between atoms: _163  and  _165
REMARK   66  A    between atoms: _165  and  _166
REMARK   67  A    between atoms: _165  and  _168
REMARK   68  A    between atoms: _168  and  _169
REMARK   69  A    between atoms: _172  and  _174
REMARK   70  A    between atoms: _174  and  _175
REMARK   71  A    between atoms: _174  and  _177
REMARK   72  A    between atoms: _177  and  _178
REMARK   73  A    between atoms: _178  and  _179
REMARK   74  A    between atoms: _184  and  _186
REMARK   75  A    between atoms: _186  and  _187
REMARK   76  A    between atoms: _186  and  _189
REMARK   77  A    between atoms: _189  and  _190
REMARK   78  A    between atoms: _192  and  _194
REMARK   79  A    between atoms: _194  and  _195
REMARK   80  A    between atoms: _194  and  _197
REMARK   81  A    between atoms: _197  and  _198
REMARK   82  A    between atoms: _208  and  _210
REMARK   83  A    between atoms: _210  and  _211
REMARK   84  A    between atoms: _210  and  _213
REMARK   85  A    between atoms: _213  and  _214
REMARK   86  A    between atoms: _214  and  _215
REMARK   87  A    between atoms: _215  and  _216
REMARK   88  A    between atoms: _216  and  _217
REMARK   89  A    between atoms: _221  and  _223
REMARK   90  A    between atoms: _223  and  _224
REMARK   91  A    between atoms: _223  and  _226
REMARK   92  A    between atoms: _226  and  _227
REMARK   93  A    between atoms: _227  and  _228
REMARK   94  A    between atoms: _228  and  _229
REMARK   95  A    between atoms: _238  and  _240
REMARK   96  A    between atoms: _240  and  _241
REMARK   97  A    between atoms: _240  and  _243
REMARK   98  A    between atoms: _243  and  _244
REMARK   99  A    between atoms: _247  and  _249
REMARK  100  A    between atoms: _249  and  _250
REMARK  101  A    between atoms: _249  and  _252
REMARK  102  A    between atoms: _252  and  _253
REMARK  103  A    between atoms: _257  and  _258
REMARK  104  A    between atoms: _263  and  _265
REMARK  105  A    between atoms: _265  and  _266
REMARK  106  A    between atoms: _265  and  _268
REMARK  107  A    between atoms: _268  and  _269
REMARK  108  A    between atoms: _269  and  _270
REMARK  109  A    between atoms: _273  and  _275
REMARK  110  A    between atoms: _275  and  _276
REMARK  111  A    between atoms: _275  and  _278
REMARK  112  A    between atoms: _278  and  _279
REMARK  113  A    between atoms: _284  and  _286
REMARK  114  A    between atoms: _286  and  _287
REMARK  115  A    between atoms: _286  and  _289
REMARK  116  A    between atoms: _289  and  _290
REMARK  117  A    between atoms: _290  and  _291
REMARK  118  A    between atoms: _291  and  _292
REMARK  119  A    between atoms: _292  and  _293
REMARK  120  A    between atoms: _297  and  _299
REMARK  121  A    between atoms: _299  and  _300
REMARK  122  A    between atoms: _299  and  _302
REMARK  123  A    between atoms: _302  and  _303
REMARK  124  A    between atoms: _313  and  _315
REMARK  125  A    between atoms: _315  and  _316
REMARK  126  A    between atoms: _315  and  _318
REMARK  127  A    between atoms: _318  and  _319
REMARK                            x       y       z     vdW  Elec       q    Type
REMARK                         _______ _______ _______ _____ _____    ______ ____
ROOT
ATOM      1  O   HOH     1      90.432  60.489  13.361  0.00  0.00    +0.000 OA
ENDROOT
TORSDOF 0
REMARK  Name = ../refined-set-2016/3f7h/3f7h_pocket.pdb
REMARK  127 active torsions:
REMARK  status: ('A' for Active; 'I' for Inactive)
REMARK    1  A    between atoms: _1  and  _3
REMARK    2  A    between atoms: _3  and  _4
REMARK    3  A    between atoms: _3  and  _6
REMARK    4  A    between atoms: _9  and  _11
REMARK    5  A    between atoms: _11  and  _12
REMARK    6  A    between atoms: _11  and  _14
REMARK    7  A    between atoms: _14  and  _15
REMARK    8  A    between atoms: _18  and  _20
REMARK    9  A    between atoms: _20  and  _21
REMARK   10  A    between atoms: _20  and  _23
REMARK   11  A    between atoms: _23  and  _24
REMARK   12  A    between atoms: _30  and  _32
REMARK   13  A    between atoms: _32  and  _33
REMARK   14  A    between atoms: _32  and  _35
REMARK   15  A    between atoms: _35  and  _36
REMARK   16  A    between atoms: _42  and  _44
REMARK   17  A    between atoms: _44  and  _45
REMARK   18  A    between atoms: _44  and  _47
REMARK   19  A    between atoms: _47  and  _48
REMARK   20  A    between atoms: _53  and  _55
REMARK   21  A    between atoms: _55  and  _56
REMARK   22  A    between atoms: _55  and  _58
REMARK   23  A    between atoms: _58  and  _59
REMARK   24  A    between atoms: _62  and  _64
REMARK   25  A    between atoms: _64  and  _65
REMARK   26  A    between atoms: _64  and  _67
REMARK   27  A    between atoms: _67  and  _68
REMARK   28  A    between atoms: _73  and  _75
REMARK   29  A    between atoms: _75  and  _76
REMARK   30  A    between atoms: _75  and  _78
REMARK   31  A    between atoms: _78  and  _79
REMARK   32  A    between atoms: _79  and  _80
REMARK   33  A    between atoms: _85  and  _87
REMARK   34  A    between atoms: _87  and  _88
REMARK   35  A    between atoms: _87  and  _90
REMARK   36  A    between atoms: _90  and  _91
REMARK   37  A    between atoms: _94  and  _96
REMARK   38  A    between atoms: _96  and  _97
REMARK   39  A    between atoms: _96  and  _99
REMARK   40  A    between atoms: _99  and  _100
REMARK   41  A    between atoms: _100  and  _101
REMARK   42  A    between atoms: _101  and  _102
REMARK   43  A    between atoms: _102  and  _103
REMARK   44  A    between atoms: _107  and  _109
REMARK   45  A    between atoms: _109  and  _110
REMARK   46  A    between atoms: _109  and  _112
REMARK   47  A    between atoms: _115  and  _117
REMARK   48  A    between atoms: _117  and  _118
REMARK   49  A    between atoms: _117  and  _120
REMARK   50  A    between atoms: _120  and  _121
REMARK   51  A    between atoms: _121  and  _122
REMARK   52  A    between atoms: _122  and  _123
REMARK   53  A    between atoms: _132  and  _134
REMARK   54  A    between atoms: _134  and  _135
REMARK   55  A    between atoms: _134  and  _137
REMARK   56  A    between atoms: _139  and  _141
REMARK   57  A    between atoms: _141  and  _142
REMARK   58  A    between atoms: _141  and  _144
REMARK   59  A    between atoms: _144  and  _145
REMARK   60  A    between atoms: _150  and  _151
REMARK   61  A    between atoms: _153  and  _155
REMARK   62  A    between atoms: _155  and  _156
REMARK   63  A    between atoms: _158  and  _160
REMARK   64  A    between atoms: _160  and  _161
REMARK   65  A    between atoms: _163  and  _165
REMARK   66  A    between atoms: _165  and  _166
REMARK   67  A    between atoms: _165  and  _168
REMARK   68  A    between atoms: _168  and  _169
REMARK   69  A    between atoms: _172  and  _174
REMARK   70  A    between atoms: _174  and  _175
REMARK   71  A    between atoms: _174  and  _177
REMARK   72  A    between atoms: _177  and  _178
REMARK   73  A    between atoms: _178  and  _179
REMARK   74  A    between atoms: _184  and  _186
REMARK   75  A    between atoms: _186  and  _187
REMARK   76  A    between atoms: _186  and  _189
REMARK   77  A    between atoms: _189  and  _190
REMARK   78  A    between atoms: _192  and  _194
REMARK   79  A    between atoms: _194  and  _195
REMARK   80  A    between atoms: _194  and  _197
REMARK   81  A    between atoms: _197  and  _198
REMARK   82  A    between atoms: _208  and  _210
REMARK   83  A    between atoms: _210  and  _211
REMARK   84  A    between atoms: _210  and  _213
REMARK   85  A    between atoms: _213  and  _214
REMARK   86  A    between atoms: _214  and  _215
REMARK   87  A    between atoms: _215  and  _216
REMARK   88  A    between atoms: _216  and  _217
REMARK   89  A    between atoms: _221  and  _223
REMARK   90  A    between atoms: _223  and  _224
REMARK   91  A    between atoms: _223  and  _226
REMARK   92  A    between atoms: _226  and  _227
REMARK   93  A    between atoms: _227  and  _228
REMARK   94  A    between atoms: _228  and  _229
REMARK   95  A    between atoms: _238  and  _240
REMARK   96  A    between atoms: _240  and  _241
REMARK   97  A    between atoms: _240  and  _243
REMARK   98  A    between atoms: _243  and  _244
REMARK   99  A    between atoms: _247  and  _249
REMARK  100  A    between atoms: _249  and  _250
REMARK  101  A    between atoms: _249  and  _252
REMARK  102  A    between atoms: _252  and  _253
REMARK  103  A    between atoms: _257  and  _258
REMARK  104  A    between atoms: _263  and  _265
REMARK  105  A    between atoms: _265  and  _266
REMARK  106  A    between atoms: _265  and  _268
REMARK  107  A    between atoms: _268  and  _269
REMARK  108  A    between atoms: _269  and  _270
REMARK  109  A    between atoms: _273  and  _275
REMARK  110  A    between atoms: _275  and  _276
REMARK  111  A    between atoms: _275  and  _278
REMARK  112  A    between atoms: _278  and  _279
REMARK  113  A    between atoms: _284  and  _286
REMARK  114  A    between atoms: _286  and  _287
REMARK  115  A    between atoms: _286  and  _289
REMARK  116  A    between atoms: _289  and  _290
REMARK  117  A    between atoms: _290  and  _291
REMARK  118  A    between atoms: _291  and  _292
REMARK  119  A    between atoms: _292  and  _293
REMARK  120  A    between atoms: _297  and  _299
REMARK  121  A    between atoms: _299  and  _300
REMARK  122  A    between atoms: _299  and  _302
REMARK  123  A    between atoms: _302  and  _303
REMARK  124  A    between atoms: _313  and  _315
REMARK  125  A    between atoms: _315  and  _316
REMARK  126  A    between atoms: _315  and  _318
REMARK  127  A    between atoms: _318  and  _319
REMARK                            x       y       z     vdW  Elec       q    Type
REMARK                         _______ _______ _______ _____ _____    ______ ____
ROOT
ATOM      1  O   HOH     1      75.659  68.822  16.108  0.00  0.00    +0.000 OA
ENDROOT
TORSDOF 0
REMARK  Name = ../refined-set-2016/3f7h/3f7h_pocket.pdb
REMARK  127 active torsions:
REMARK  status: ('A' for Active; 'I' for Inactive)
REMARK    1  A    between atoms: _1  and  _3
REMARK    2  A    between atoms: _3  and  _4
REMARK    3  A    between atoms: _3  and  _6
REMARK    4  A    between atoms: _9  and  _11
REMARK    5  A    between atoms: _11  and  _12
REMARK    6  A    between atoms: _11  and  _14
REMARK    7  A    between atoms: _14  and  _15
REMARK    8  A    between atoms: _18  and  _20
REMARK    9  A    between atoms: _20  and  _21
REMARK   10  A    between atoms: _20  and  _23
REMARK   11  A    between atoms: _23  and  _24
REMARK   12  A    between atoms: _30  and  _32
REMARK   13  A    between atoms: _32  and  _33
REMARK   14  A    between atoms: _32  and  _35
REMARK   15  A    between atoms: _35  and  _36
REMARK   16  A    between atoms: _42  and  _44
REMARK   17  A    between atoms: _44  and  _45
REMARK   18  A    between atoms: _44  and  _47
REMARK   19  A    between atoms: _47  and  _48
REMARK   20  A    between atoms: _53  and  _55
REMARK   21  A    between atoms: _55  and  _56
REMARK   22  A    between atoms: _55  and  _58
REMARK   23  A    between atoms: _58  and  _59
REMARK   24  A    between atoms: _62  and  _64
REMARK   25  A    between atoms: _64  and  _65
REMARK   26  A    between atoms: _64  and  _67
REMARK   27  A    between atoms: _67  and  _68
REMARK   28  A    between atoms: _73  and  _75
REMARK   29  A    between atoms: _75  and  _76
REMARK   30  A    between atoms: _75  and  _78
REMARK   31  A    between atoms: _78  and  _79
REMARK   32  A    between atoms: _79  and  _80
REMARK   33  A    between atoms: _85  and  _87
REMARK   34  A    between atoms: _87  and  _88
REMARK   35  A    between atoms: _87  and  _90
REMARK   36  A    between atoms: _90  and  _91
REMARK   37  A    between atoms: _94  and  _96
REMARK   38  A    between atoms: _96  and  _97
REMARK   39  A    between atoms: _96  and  _99
REMARK   40  A    between atoms: _99  and  _100
REMARK   41  A    between atoms: _100  and  _101
REMARK   42  A    between atoms: _101  and  _102
REMARK   43  A    between atoms: _102  and  _103
REMARK   44  A    between atoms: _107  and  _109
REMARK   45  A    between atoms: _109  and  _110
REMARK   46  A    between atoms: _109  and  _112
REMARK   47  A    between atoms: _115  and  _117
REMARK   48  A    between atoms: _117  and  _118
REMARK   49  A    between atoms: _117  and  _120
REMARK   50  A    between atoms: _120  and  _121
REMARK   51  A    between atoms: _121  and  _122
REMARK   52  A    between atoms: _122  and  _123
REMARK   53  A    between atoms: _132  and  _134
REMARK   54  A    between atoms: _134  and  _135
REMARK   55  A    between atoms: _134  and  _137
REMARK   56  A    between atoms: _139  and  _141
REMARK   57  A    between atoms: _141  and  _142
REMARK   58  A    between atoms: _141  and  _144
REMARK   59  A    between atoms: _144  and  _145
REMARK   60  A    between atoms: _150  and  _151
REMARK   61  A    between atoms: _153  and  _155
REMARK   62  A    between atoms: _155  and  _156
REMARK   63  A    between atoms: _158  and  _160
REMARK   64  A    between atoms: _160  and  _161
REMARK   65  A    between atoms: _163  and  _165
REMARK   66  A    between atoms: _165  and  _166
REMARK   67  A    between atoms: _165  and  _168
REMARK   68  A    between atoms: _168  and  _169
REMARK   69  A    between atoms: _172  and  _174
REMARK   70  A    between atoms: _174  and  _175
REMARK   71  A    between atoms: _174  and  _177
REMARK   72  A    between atoms: _177  and  _178
REMARK   73  A    between atoms: _178  and  _179
REMARK   74  A    between atoms: _184  and  _186
REMARK   75  A    between atoms: _186  and  _187
REMARK   76  A    between atoms: _186  and  _189
REMARK   77  A    between atoms: _189  and  _190
REMARK   78  A    between atoms: _192  and  _194
REMARK   79  A    between atoms: _194  and  _195
REMARK   80  A    between atoms: _194  and  _197
REMARK   81  A    between atoms: _197  and  _198
REMARK   82  A    between atoms: _208  and  _210
REMARK   83  A    between atoms: _210  and  _211
REMARK   84  A    between atoms: _210  and  _213
REMARK   85  A    between atoms: _213  and  _214
REMARK   86  A    between atoms: _214  and  _215
REMARK   87  A    between atoms: _215  and  _216
REMARK   88  A    between atoms: _216  and  _217
REMARK   89  A    between atoms: _221  and  _223
REMARK   90  A    between atoms: _223  and  _224
REMARK   91  A    between atoms: _223  and  _226
REMARK   92  A    between atoms: _226  and  _227
REMARK   93  A    between atoms: _227  and  _228
REMARK   94  A    between atoms: _228  and  _229
REMARK   95  A    between atoms: _238  and  _240
REMARK   96  A    between atoms: _240  and  _241
REMARK   97  A    between atoms: _240  and  _243
REMARK   98  A    between atoms: _243  and  _244
REMARK   99  A    between atoms: _247  and  _249
REMARK  100  A    between atoms: _249  and  _250
REMARK  101  A    between atoms: _249  and  _252
REMARK  102  A    between atoms: _252  and  _253
REMARK  103  A    between atoms: _257  and  _258
REMARK  104  A    between atoms: _263  and  _265
REMARK  105  A    between atoms: _265  and  _266
REMARK  106  A    between atoms: _265  and  _268
REMARK  107  A    between atoms: _268  and  _269
REMARK  108  A    between atoms: _269  and  _270
REMARK  109  A    between atoms: _273  and  _275
REMARK  110  A    between atoms: _275  and  _276
REMARK  111  A    between atoms: _275  and  _278
REMARK  112  A    between atoms: _278  and  _279
REMARK  113  A    between atoms: _284  and  _286
REMARK  114  A    between atoms: _286  and  _287
REMARK  115  A    between atoms: _286  and  _289
REMARK  116  A    between atoms: _289  and  _290
REMARK  117  A    between atoms: _290  and  _291
REMARK  118  A    between atoms: _291  and  _292
REMARK  119  A    between atoms: _292  and  _293
REMARK  120  A    between atoms: _297  and  _299
REMARK  121  A    between atoms: _299  and  _300
REMARK  122  A    between atoms: _299  and  _302
REMARK  123  A    between atoms: _302  and  _303
REMARK  124  A    between atoms: _313  and  _315
REMARK  125  A    between atoms: _315  and  _316
REMARK  126  A    between atoms: _315  and  _318
REMARK  127  A    between atoms: _318  and  _319
REMARK                            x       y       z     vdW  Elec       q    Type
REMARK                         _______ _______ _______ _____ _____    ______ ____
ROOT
ATOM      1  O   HOH     1      73.815  57.874  16.815  0.00  0.00    +0.000 OA
ENDROOT
TORSDOF 0
REMARK  Name = ../refined-set-2016/3f7h/3f7h_pocket.pdb
REMARK  127 active torsions:
REMARK  status: ('A' for Active; 'I' for Inactive)
REMARK    1  A    between atoms: _1  and  _3
REMARK    2  A    between atoms: _3  and  _4
REMARK    3  A    between atoms: _3  and  _6
REMARK    4  A    between atoms: _9  and  _11
REMARK    5  A    between atoms: _11  and  _12
REMARK    6  A    between atoms: _11  and  _14
REMARK    7  A    between atoms: _14  and  _15
REMARK    8  A    between atoms: _18  and  _20
REMARK    9  A    between atoms: _20  and  _21
REMARK   10  A    between atoms: _20  and  _23
REMARK   11  A    between atoms: _23  and  _24
REMARK   12  A    between atoms: _30  and  _32
REMARK   13  A    between atoms: _32  and  _33
REMARK   14  A    between atoms: _32  and  _35
REMARK   15  A    between atoms: _35  and  _36
REMARK   16  A    between atoms: _42  and  _44
REMARK   17  A    between atoms: _44  and  _45
REMARK   18  A    between atoms: _44  and  _47
REMARK   19  A    between atoms: _47  and  _48
REMARK   20  A    between atoms: _53  and  _55
REMARK   21  A    between atoms: _55  and  _56
REMARK   22  A    between atoms: _55  and  _58
REMARK   23  A    between atoms: _58  and  _59
REMARK   24  A    between atoms: _62  and  _64
REMARK   25  A    between atoms: _64  and  _65
REMARK   26  A    between atoms: _64  and  _67
REMARK   27  A    between atoms: _67  and  _68
REMARK   28  A    between atoms: _73  and  _75
REMARK   29  A    between atoms: _75  and  _76
REMARK   30  A    between atoms: _75  and  _78
REMARK   31  A    between atoms: _78  and  _79
REMARK   32  A    between atoms: _79  and  _80
REMARK   33  A    between atoms: _85  and  _87
REMARK   34  A    between atoms: _87  and  _88
REMARK   35  A    between atoms: _87  and  _90
REMARK   36  A    between atoms: _90  and  _91
REMARK   37  A    between atoms: _94  and  _96
REMARK   38  A    between atoms: _96  and  _97
REMARK   39  A    between atoms: _96  and  _99
REMARK   40  A    between atoms: _99  and  _100
REMARK   41  A    between atoms: _100  and  _101
REMARK   42  A    between atoms: _101  and  _102
REMARK   43  A    between atoms: _102  and  _103
REMARK   44  A    between atoms: _107  and  _109
REMARK   45  A    between atoms: _109  and  _110
REMARK   46  A    between atoms: _109  and  _112
REMARK   47  A    between atoms: _115  and  _117
REMARK   48  A    between atoms: _117  and  _118
REMARK   49  A    between atoms: _117  and  _120
REMARK   50  A    between atoms: _120  and  _121
REMARK   51  A    between atoms: _121  and  _122
REMARK   52  A    between atoms: _122  and  _123
REMARK   53  A    between atoms: _132  and  _134
REMARK   54  A    between atoms: _134  and  _135
REMARK   55  A    between atoms: _134  and  _137
REMARK   56  A    between atoms: _139  and  _141
REMARK   57  A    between atoms: _141  and  _142
REMARK   58  A    between atoms: _141  and  _144
REMARK   59  A    between atoms: _144  and  _145
REMARK   60  A    between atoms: _150  and  _151
REMARK   61  A    between atoms: _153  and  _155
REMARK   62  A    between atoms: _155  and  _156
REMARK   63  A    between atoms: _158  and  _160
REMARK   64  A    between atoms: _160  and  _161
REMARK   65  A    between atoms: _163  and  _165
REMARK   66  A    between atoms: _165  and  _166
REMARK   67  A    between atoms: _165  and  _168
REMARK   68  A    between atoms: _168  and  _169
REMARK   69  A    between atoms: _172  and  _174
REMARK   70  A    between atoms: _174  and  _175
REMARK   71  A    between atoms: _174  and  _177
REMARK   72  A    between atoms: _177  and  _178
REMARK   73  A    between atoms: _178  and  _179
REMARK   74  A    between atoms: _184  and  _186
REMARK   75  A    between atoms: _186  and  _187
REMARK   76  A    between atoms: _186  and  _189
REMARK   77  A    between atoms: _189  and  _190
REMARK   78  A    between atoms: _192  and  _194
REMARK   79  A    between atoms: _194  and  _195
REMARK   80  A    between atoms: _194  and  _197
REMARK   81  A    between atoms: _197  and  _198
REMARK   82  A    between atoms: _208  and  _210
REMARK   83  A    between atoms: _210  and  _211
REMARK   84  A    between atoms: _210  and  _213
REMARK   85  A    between atoms: _213  and  _214
REMARK   86  A    between atoms: _214  and  _215
REMARK   87  A    between atoms: _215  and  _216
REMARK   88  A    between atoms: _216  and  _217
REMARK   89  A    between atoms: _221  and  _223
REMARK   90  A    between atoms: _223  and  _224
REMARK   91  A    between atoms: _223  and  _226
REMARK   92  A    between atoms: _226  and  _227
REMARK   93  A    between atoms: _227  and  _228
REMARK   94  A    between atoms: _228  and  _229
REMARK   95  A    between atoms: _238  and  _240
REMARK   96  A    between atoms: _240  and  _241
REMARK   97  A    between atoms: _240  and  _243
REMARK   98  A    between atoms: _243  and  _244
REMARK   99  A    between atoms: _247  and  _249
REMARK  100  A    between atoms: _249  and  _250
REMARK  101  A    between atoms: _249  and  _252
REMARK  102  A    between atoms: _252  and  _253
REMARK  103  A    between atoms: _257  and  _258
REMARK  104  A    between atoms: _263  and  _265
REMARK  105  A    between atoms: _265  and  _266
REMARK  106  A    between atoms: _265  and  _268
REMARK  107  A    between atoms: _268  and  _269
REMARK  108  A    between atoms: _269  and  _270
REMARK  109  A    between atoms: _273  and  _275
REMARK  110  A    between atoms: _275  and  _276
REMARK  111  A    between atoms: _275  and  _278
REMARK  112  A    between atoms: _278  and  _279
REMARK  113  A    between atoms: _284  and  _286
REMARK  114  A    between atoms: _286  and  _287
REMARK  115  A    between atoms: _286  and  _289
REMARK  116  A    between atoms: _289  and  _290
REMARK  117  A    between atoms: _290  and  _291
REMARK  118  A    between atoms: _291  and  _292
REMARK  119  A    between atoms: _292  and  _293
REMARK  120  A    between atoms: _297  and  _299
REMARK  121  A    between atoms: _299  and  _300
REMARK  122  A    between atoms: _299  and  _302
REMARK  123  A    between atoms: _302  and  _303
REMARK  124  A    between atoms: _313  and  _315
REMARK  125  A    between atoms: _315  and  _316
REMARK  126  A    between atoms: _315  and  _318
REMARK  127  A    between atoms: _318  and  _319
REMARK                            x       y       z     vdW  Elec       q    Type
REMARK                         _______ _______ _______ _____ _____    ______ ____
ROOT
ATOM      1  O   HOH     1      80.498  69.221   9.863  0.00  0.00    +0.000 OA
ENDROOT
TORSDOF 0
REMARK  Name = ../refined-set-2016/3f7h/3f7h_pocket.pdb
REMARK  127 active torsions:
REMARK  status: ('A' for Active; 'I' for Inactive)
REMARK    1  A    between atoms: _1  and  _3
REMARK    2  A    between atoms: _3  and  _4
REMARK    3  A    between atoms: _3  and  _6
REMARK    4  A    between atoms: _9  and  _11
REMARK    5  A    between atoms: _11  and  _12
REMARK    6  A    between atoms: _11  and  _14
REMARK    7  A    between atoms: _14  and  _15
REMARK    8  A    between atoms: _18  and  _20
REMARK    9  A    between atoms: _20  and  _21
REMARK   10  A    between atoms: _20  and  _23
REMARK   11  A    between atoms: _23  and  _24
REMARK   12  A    between atoms: _30  and  _32
REMARK   13  A    between atoms: _32  and  _33
REMARK   14  A    between atoms: _32  and  _35
REMARK   15  A    between atoms: _35  and  _36
REMARK   16  A    between atoms: _42  and  _44
REMARK   17  A    between atoms: _44  and  _45
REMARK   18  A    between atoms: _44  and  _47
REMARK   19  A    between atoms: _47  and  _48
REMARK   20  A    between atoms: _53  and  _55
REMARK   21  A    between atoms: _55  and  _56
REMARK   22  A    between atoms: _55  and  _58
REMARK   23  A    between atoms: _58  and  _59
REMARK   24  A    between atoms: _62  and  _64
REMARK   25  A    between atoms: _64  and  _65
REMARK   26  A    between atoms: _64  and  _67
REMARK   27  A    between atoms: _67  and  _68
REMARK   28  A    between atoms: _73  and  _75
REMARK   29  A    between atoms: _75  and  _76
REMARK   30  A    between atoms: _75  and  _78
REMARK   31  A    between atoms: _78  and  _79
REMARK   32  A    between atoms: _79  and  _80
REMARK   33  A    between atoms: _85  and  _87
REMARK   34  A    between atoms: _87  and  _88
REMARK   35  A    between atoms: _87  and  _90
REMARK   36  A    between atoms: _90  and  _91
REMARK   37  A    between atoms: _94  and  _96
REMARK   38  A    between atoms: _96  and  _97
REMARK   39  A    between atoms: _96  and  _99
REMARK   40  A    between atoms: _99  and  _100
REMARK   41  A    between atoms: _100  and  _101
REMARK   42  A    between atoms: _101  and  _102
REMARK   43  A    between atoms: _102  and  _103
REMARK   44  A    between atoms: _107  and  _109
REMARK   45  A    between atoms: _109  and  _110
REMARK   46  A    between atoms: _109  and  _112
REMARK   47  A    between atoms: _115  and  _117
REMARK   48  A    between atoms: _117  and  _118
REMARK   49  A    between atoms: _117  and  _120
REMARK   50  A    between atoms: _120  and  _121
REMARK   51  A    between atoms: _121  and  _122
REMARK   52  A    between atoms: _122  and  _123
REMARK   53  A    between atoms: _132  and  _134
REMARK   54  A    between atoms: _134  and  _135
REMARK   55  A    between atoms: _134  and  _137
REMARK   56  A    between atoms: _139  and  _141
REMARK   57  A    between atoms: _141  and  _142
REMARK   58  A    between atoms: _141  and  _144
REMARK   59  A    between atoms: _144  and  _145
REMARK   60  A    between atoms: _150  and  _151
REMARK   61  A    between atoms: _153  and  _155
REMARK   62  A    between atoms: _155  and  _156
REMARK   63  A    between atoms: _158  and  _160
REMARK   64  A    between atoms: _160  and  _161
REMARK   65  A    between atoms: _163  and  _165
REMARK   66  A    between atoms: _165  and  _166
REMARK   67  A    between atoms: _165  and  _168
REMARK   68  A    between atoms: _168  and  _169
REMARK   69  A    between atoms: _172  and  _174
REMARK   70  A    between atoms: _174  and  _175
REMARK   71  A    between atoms: _174  and  _177
REMARK   72  A    between atoms: _177  and  _178
REMARK   73  A    between atoms: _178  and  _179
REMARK   74  A    between atoms: _184  and  _186
REMARK   75  A    between atoms: _186  and  _187
REMARK   76  A    between atoms: _186  and  _189
REMARK   77  A    between atoms: _189  and  _190
REMARK   78  A    between atoms: _192  and  _194
REMARK   79  A    between atoms: _194  and  _195
REMARK   80  A    between atoms: _194  and  _197
REMARK   81  A    between atoms: _197  and  _198
REMARK   82  A    between atoms: _208  and  _210
REMARK   83  A    between atoms: _210  and  _211
REMARK   84  A    between atoms: _210  and  _213
REMARK   85  A    between atoms: _213  and  _214
REMARK   86  A    between atoms: _214  and  _215
REMARK   87  A    between atoms: _215  and  _216
REMARK   88  A    between atoms: _216  and  _217
REMARK   89  A    between atoms: _221  and  _223
REMARK   90  A    between atoms: _223  and  _224
REMARK   91  A    between atoms: _223  and  _226
REMARK   92  A    between atoms: _226  and  _227
REMARK   93  A    between atoms: _227  and  _228
REMARK   94  A    between atoms: _228  and  _229
REMARK   95  A    between atoms: _238  and  _240
REMARK   96  A    between atoms: _240  and  _241
REMARK   97  A    between atoms: _240  and  _243
REMARK   98  A    between atoms: _243  and  _244
REMARK   99  A    between atoms: _247  and  _249
REMARK  100  A    between atoms: _249  and  _250
REMARK  101  A    between atoms: _249  and  _252
REMARK  102  A    between atoms: _252  and  _253
REMARK  103  A    between atoms: _257  and  _258
REMARK  104  A    between atoms: _263  and  _265
REMARK  105  A    between atoms: _265  and  _266
REMARK  106  A    between atoms: _265  and  _268
REMARK  107  A    between atoms: _268  and  _269
REMARK  108  A    between atoms: _269  and  _270
REMARK  109  A    between atoms: _273  and  _275
REMARK  110  A    between atoms: _275  and  _276
REMARK  111  A    between atoms: _275  and  _278
REMARK  112  A    between atoms: _278  and  _279
REMARK  113  A    between atoms: _284  and  _286
REMARK  114  A    between atoms: _286  and  _287
REMARK  115  A    between atoms: _286  and  _289
REMARK  116  A    between atoms: _289  and  _290
REMARK  117  A    between atoms: _290  and  _291
REMARK  118  A    between atoms: _291  and  _292
REMARK  119  A    between atoms: _292  and  _293
REMARK  120  A    between atoms: _297  and  _299
REMARK  121  A    between atoms: _299  and  _300
REMARK  122  A    between atoms: _299  and  _302
REMARK  123  A    between atoms: _302  and  _303
REMARK  124  A    between atoms: _313  and  _315
REMARK  125  A    between atoms: _315  and  _316
REMARK  126  A    between atoms: _315  and  _318
REMARK  127  A    between atoms: _318  and  _319
REMARK                            x       y       z     vdW  Elec       q    Type
REMARK                         _______ _______ _______ _____ _____    ______ ____
ROOT
ATOM      1  O   HOH     1      73.196  62.417  23.504  0.00  0.00    +0.000 OA
ENDROOT
TORSDOF 0
REMARK  Name = ../refined-set-2016/3f7h/3f7h_pocket.pdb
REMARK  127 active torsions:
REMARK  status: ('A' for Active; 'I' for Inactive)
REMARK    1  A    between atoms: _1  and  _3
REMARK    2  A    between atoms: _3  and  _4
REMARK    3  A    between atoms: _3  and  _6
REMARK    4  A    between atoms: _9  and  _11
REMARK    5  A    between atoms: _11  and  _12
REMARK    6  A    between atoms: _11  and  _14
REMARK    7  A    between atoms: _14  and  _15
REMARK    8  A    between atoms: _18  and  _20
REMARK    9  A    between atoms: _20  and  _21
REMARK   10  A    between atoms: _20  and  _23
REMARK   11  A    between atoms: _23  and  _24
REMARK   12  A    between atoms: _30  and  _32
REMARK   13  A    between atoms: _32  and  _33
REMARK   14  A    between atoms: _32  and  _35
REMARK   15  A    between atoms: _35  and  _36
REMARK   16  A    between atoms: _42  and  _44
REMARK   17  A    between atoms: _44  and  _45
REMARK   18  A    between atoms: _44  and  _47
REMARK   19  A    between atoms: _47  and  _48
REMARK   20  A    between atoms: _53  and  _55
REMARK   21  A    between atoms: _55  and  _56
REMARK   22  A    between atoms: _55  and  _58
REMARK   23  A    between atoms: _58  and  _59
REMARK   24  A    between atoms: _62  and  _64
REMARK   25  A    between atoms: _64  and  _65
REMARK   26  A    between atoms: _64  and  _67
REMARK   27  A    between atoms: _67  and  _68
REMARK   28  A    between atoms: _73  and  _75
REMARK   29  A    between atoms: _75  and  _76
REMARK   30  A    between atoms: _75  and  _78
REMARK   31  A    between atoms: _78  and  _79
REMARK   32  A    between atoms: _79  and  _80
REMARK   33  A    between atoms: _85  and  _87
REMARK   34  A    between atoms: _87  and  _88
REMARK   35  A    between atoms: _87  and  _90
REMARK   36  A    between atoms: _90  and  _91
REMARK   37  A    between atoms: _94  and  _96
REMARK   38  A    between atoms: _96  and  _97
REMARK   39  A    between atoms: _96  and  _99
REMARK   40  A    between atoms: _99  and  _100
REMARK   41  A    between atoms: _100  and  _101
REMARK   42  A    between atoms: _101  and  _102
REMARK   43  A    between atoms: _102  and  _103
REMARK   44  A    between atoms: _107  and  _109
REMARK   45  A    between atoms: _109  and  _110
REMARK   46  A    between atoms: _109  and  _112
REMARK   47  A    between atoms: _115  and  _117
REMARK   48  A    between atoms: _117  and  _118
REMARK   49  A    between atoms: _117  and  _120
REMARK   50  A    between atoms: _120  and  _121
REMARK   51  A    between atoms: _121  and  _122
REMARK   52  A    between atoms: _122  and  _123
REMARK   53  A    between atoms: _132  and  _134
REMARK   54  A    between atoms: _134  and  _135
REMARK   55  A    between atoms: _134  and  _137
REMARK   56  A    between atoms: _139  and  _141
REMARK   57  A    between atoms: _141  and  _142
REMARK   58  A    between atoms: _141  and  _144
REMARK   59  A    between atoms: _144  and  _145
REMARK   60  A    between atoms: _150  and  _151
REMARK   61  A    between atoms: _153  and  _155
REMARK   62  A    between atoms: _155  and  _156
REMARK   63  A    between atoms: _158  and  _160
REMARK   64  A    between atoms: _160  and  _161
REMARK   65  A    between atoms: _163  and  _165
REMARK   66  A    between atoms: _165  and  _166
REMARK   67  A    between atoms: _165  and  _168
REMARK   68  A    between atoms: _168  and  _169
REMARK   69  A    between atoms: _172  and  _174
REMARK   70  A    between atoms: _174  and  _175
REMARK   71  A    between atoms: _174  and  _177
REMARK   72  A    between atoms: _177  and  _178
REMARK   73  A    between atoms: _178  and  _179
REMARK   74  A    between atoms: _184  and  _186
REMARK   75  A    between atoms: _186  and  _187
REMARK   76  A    between atoms: _186  and  _189
REMARK   77  A    between atoms: _189  and  _190
REMARK   78  A    between atoms: _192  and  _194
REMARK   79  A    between atoms: _194  and  _195
REMARK   80  A    between atoms: _194  and  _197
REMARK   81  A    between atoms: _197  and  _198
REMARK   82  A    between atoms: _208  and  _210
REMARK   83  A    between atoms: _210  and  _211
REMARK   84  A    between atoms: _210  and  _213
REMARK   85  A    between atoms: _213  and  _214
REMARK   86  A    between atoms: _214  and  _215
REMARK   87  A    between atoms: _215  and  _216
REMARK   88  A    between atoms: _216  and  _217
REMARK   89  A    between atoms: _221  and  _223
REMARK   90  A    between atoms: _223  and  _224
REMARK   91  A    between atoms: _223  and  _226
REMARK   92  A    between atoms: _226  and  _227
REMARK   93  A    between atoms: _227  and  _228
REMARK   94  A    between atoms: _228  and  _229
REMARK   95  A    between atoms: _238  and  _240
REMARK   96  A    between atoms: _240  and  _241
REMARK   97  A    between atoms: _240  and  _243
REMARK   98  A    between atoms: _243  and  _244
REMARK   99  A    between atoms: _247  and  _249
REMARK  100  A    between atoms: _249  and  _250
REMARK  101  A    between atoms: _249  and  _252
REMARK  102  A    between atoms: _252  and  _253
REMARK  103  A    between atoms: _257  and  _258
REMARK  104  A    between atoms: _263  and  _265
REMARK  105  A    between atoms: _265  and  _266
REMARK  106  A    between atoms: _265  and  _268
REMARK  107  A    between atoms: _268  and  _269
REMARK  108  A    between atoms: _269  and  _270
REMARK  109  A    between atoms: _273  and  _275
REMARK  110  A    between atoms: _275  and  _276
REMARK  111  A    between atoms: _275  and  _278
REMARK  112  A    between atoms: _278  and  _279
REMARK  113  A    between atoms: _284  and  _286
REMARK  114  A    between atoms: _286  and  _287
REMARK  115  A    between atoms: _286  and  _289
REMARK  116  A    between atoms: _289  and  _290
REMARK  117  A    between atoms: _290  and  _291
REMARK  118  A    between atoms: _291  and  _292
REMARK  119  A    between atoms: _292  and  _293
REMARK  120  A    between atoms: _297  and  _299
REMARK  121  A    between atoms: _299  and  _300
REMARK  122  A    between atoms: _299  and  _302
REMARK  123  A    between atoms: _302  and  _303
REMARK  124  A    between atoms: _313  and  _315
REMARK  125  A    between atoms: _315  and  _316
REMARK  126  A    between atoms: _315  and  _318
REMARK  127  A    between atoms: _318  and  _319
REMARK                            x       y       z     vdW  Elec       q    Type
REMARK                         _______ _______ _______ _____ _____    ______ ____
ROOT
ATOM      1  O   HOH     1      73.446  67.892  15.933  0.00  0.00    +0.000 OA
ENDROOT
TORSDOF 0
REMARK  Name = ../refined-set-2016/3f7h/3f7h_pocket.pdb
REMARK  127 active torsions:
REMARK  status: ('A' for Active; 'I' for Inactive)
REMARK    1  A    between atoms: _1  and  _3
REMARK    2  A    between atoms: _3  and  _4
REMARK    3  A    between atoms: _3  and  _6
REMARK    4  A    between atoms: _9  and  _11
REMARK    5  A    between atoms: _11  and  _12
REMARK    6  A    between atoms: _11  and  _14
REMARK    7  A    between atoms: _14  and  _15
REMARK    8  A    between atoms: _18  and  _20
REMARK    9  A    between atoms: _20  and  _21
REMARK   10  A    between atoms: _20  and  _23
REMARK   11  A    between atoms: _23  and  _24
REMARK   12  A    between atoms: _30  and  _32
REMARK   13  A    between atoms: _32  and  _33
REMARK   14  A    between atoms: _32  and  _35
REMARK   15  A    between atoms: _35  and  _36
REMARK   16  A    between atoms: _42  and  _44
REMARK   17  A    between atoms: _44  and  _45
REMARK   18  A    between atoms: _44  and  _47
REMARK   19  A    between atoms: _47  and  _48
REMARK   20  A    between atoms: _53  and  _55
REMARK   21  A    between atoms: _55  and  _56
REMARK   22  A    between atoms: _55  and  _58
REMARK   23  A    between atoms: _58  and  _59
REMARK   24  A    between atoms: _62  and  _64
REMARK   25  A    between atoms: _64  and  _65
REMARK   26  A    between atoms: _64  and  _67
REMARK   27  A    between atoms: _67  and  _68
REMARK   28  A    between atoms: _73  and  _75
REMARK   29  A    between atoms: _75  and  _76
REMARK   30  A    between atoms: _75  and  _78
REMARK   31  A    between atoms: _78  and  _79
REMARK   32  A    between atoms: _79  and  _80
REMARK   33  A    between atoms: _85  and  _87
REMARK   34  A    between atoms: _87  and  _88
REMARK   35  A    between atoms: _87  and  _90
REMARK   36  A    between atoms: _90  and  _91
REMARK   37  A    between atoms: _94  and  _96
REMARK   38  A    between atoms: _96  and  _97
REMARK   39  A    between atoms: _96  and  _99
REMARK   40  A    between atoms: _99  and  _100
REMARK   41  A    between atoms: _100  and  _101
REMARK   42  A    between atoms: _101  and  _102
REMARK   43  A    between atoms: _102  and  _103
REMARK   44  A    between atoms: _107  and  _109
REMARK   45  A    between atoms: _109  and  _110
REMARK   46  A    between atoms: _109  and  _112
REMARK   47  A    between atoms: _115  and  _117
REMARK   48  A    between atoms: _117  and  _118
REMARK   49  A    between atoms: _117  and  _120
REMARK   50  A    between atoms: _120  and  _121
REMARK   51  A    between atoms: _121  and  _122
REMARK   52  A    between atoms: _122  and  _123
REMARK   53  A    between atoms: _132  and  _134
REMARK   54  A    between atoms: _134  and  _135
REMARK   55  A    between atoms: _134  and  _137
REMARK   56  A    between atoms: _139  and  _141
REMARK   57  A    between atoms: _141  and  _142
REMARK   58  A    between atoms: _141  and  _144
REMARK   59  A    between atoms: _144  and  _145
REMARK   60  A    between atoms: _150  and  _151
REMARK   61  A    between atoms: _153  and  _155
REMARK   62  A    between atoms: _155  and  _156
REMARK   63  A    between atoms: _158  and  _160
REMARK   64  A    between atoms: _160  and  _161
REMARK   65  A    between atoms: _163  and  _165
REMARK   66  A    between atoms: _165  and  _166
REMARK   67  A    between atoms: _165  and  _168
REMARK   68  A    between atoms: _168  and  _169
REMARK   69  A    between atoms: _172  and  _174
REMARK   70  A    between atoms: _174  and  _175
REMARK   71  A    between atoms: _174  and  _177
REMARK   72  A    between atoms: _177  and  _178
REMARK   73  A    between atoms: _178  and  _179
REMARK   74  A    between atoms: _184  and  _186
REMARK   75  A    between atoms: _186  and  _187
REMARK   76  A    between atoms: _186  and  _189
REMARK   77  A    between atoms: _189  and  _190
REMARK   78  A    between atoms: _192  and  _194
REMARK   79  A    between atoms: _194  and  _195
REMARK   80  A    between atoms: _194  and  _197
REMARK   81  A    between atoms: _197  and  _198
REMARK   82  A    between atoms: _208  and  _210
REMARK   83  A    between atoms: _210  and  _211
REMARK   84  A    between atoms: _210  and  _213
REMARK   85  A    between atoms: _213  and  _214
REMARK   86  A    between atoms: _214  and  _215
REMARK   87  A    between atoms: _215  and  _216
REMARK   88  A    between atoms: _216  and  _217
REMARK   89  A    between atoms: _221  and  _223
REMARK   90  A    between atoms: _223  and  _224
REMARK   91  A    between atoms: _223  and  _226
REMARK   92  A    between atoms: _226  and  _227
REMARK   93  A    between atoms: _227  and  _228
REMARK   94  A    between atoms: _228  and  _229
REMARK   95  A    between atoms: _238  and  _240
REMARK   96  A    between atoms: _240  and  _241
REMARK   97  A    between atoms: _240  and  _243
REMARK   98  A    between atoms: _243  and  _244
REMARK   99  A    between atoms: _247  and  _249
REMARK  100  A    between atoms: _249  and  _250
REMARK  101  A    between atoms: _249  and  _252
REMARK  102  A    between atoms: _252  and  _253
REMARK  103  A    between atoms: _257  and  _258
REMARK  104  A    between atoms: _263  and  _265
REMARK  105  A    between atoms: _265  and  _266
REMARK  106  A    between atoms: _265  and  _268
REMARK  107  A    between atoms: _268  and  _269
REMARK  108  A    between atoms: _269  and  _270
REMARK  109  A    between atoms: _273  and  _275
REMARK  110  A    between atoms: _275  and  _276
REMARK  111  A    between atoms: _275  and  _278
REMARK  112  A    between atoms: _278  and  _279
REMARK  113  A    between atoms: _284  and  _286
REMARK  114  A    between atoms: _286  and  _287
REMARK  115  A    between atoms: _286  and  _289
REMARK  116  A    between atoms: _289  and  _290
REMARK  117  A    between atoms: _290  and  _291
REMARK  118  A    between atoms: _291  and  _292
REMARK  119  A    between atoms: _292  and  _293
REMARK  120  A    between atoms: _297  and  _299
REMARK  121  A    between atoms: _299  and  _300
REMARK  122  A    between atoms: _299  and  _302
REMARK  123  A    between atoms: _302  and  _303
REMARK  124  A    between atoms: _313  and  _315
REMARK  125  A    between atoms: _315  and  _316
REMARK  126  A    between atoms: _315  and  _318
REMARK  127  A    between atoms: _318  and  _319
REMARK                            x       y       z     vdW  Elec       q    Type
REMARK                         _______ _______ _______ _____ _____    ______ ____
ROOT
ATOM      1  O   HOH     1      92.524  63.583  15.553  0.00  0.00    +0.000 OA
ENDROOT
TORSDOF 0
REMARK  Name = ../refined-set-2016/3f7h/3f7h_pocket.pdb
REMARK  127 active torsions:
REMARK  status: ('A' for Active; 'I' for Inactive)
REMARK    1  A    between atoms: _1  and  _3
REMARK    2  A    between atoms: _3  and  _4
REMARK    3  A    between atoms: _3  and  _6
REMARK    4  A    between atoms: _9  and  _11
REMARK    5  A    between atoms: _11  and  _12
REMARK    6  A    between atoms: _11  and  _14
REMARK    7  A    between atoms: _14  and  _15
REMARK    8  A    between atoms: _18  and  _20
REMARK    9  A    between atoms: _20  and  _21
REMARK   10  A    between atoms: _20  and  _23
REMARK   11  A    between atoms: _23  and  _24
REMARK   12  A    between atoms: _30  and  _32
REMARK   13  A    between atoms: _32  and  _33
REMARK   14  A    between atoms: _32  and  _35
REMARK   15  A    between atoms: _35  and  _36
REMARK   16  A    between atoms: _42  and  _44
REMARK   17  A    between atoms: _44  and  _45
REMARK   18  A    between atoms: _44  and  _47
REMARK   19  A    between atoms: _47  and  _48
REMARK   20  A    between atoms: _53  and  _55
REMARK   21  A    between atoms: _55  and  _56
REMARK   22  A    between atoms: _55  and  _58
REMARK   23  A    between atoms: _58  and  _59
REMARK   24  A    between atoms: _62  and  _64
REMARK   25  A    between atoms: _64  and  _65
REMARK   26  A    between atoms: _64  and  _67
REMARK   27  A    between atoms: _67  and  _68
REMARK   28  A    between atoms: _73  and  _75
REMARK   29  A    between atoms: _75  and  _76
REMARK   30  A    between atoms: _75  and  _78
REMARK   31  A    between atoms: _78  and  _79
REMARK   32  A    between atoms: _79  and  _80
REMARK   33  A    between atoms: _85  and  _87
REMARK   34  A    between atoms: _87  and  _88
REMARK   35  A    between atoms: _87  and  _90
REMARK   36  A    between atoms: _90  and  _91
REMARK   37  A    between atoms: _94  and  _96
REMARK   38  A    between atoms: _96  and  _97
REMARK   39  A    between atoms: _96  and  _99
REMARK   40  A    between atoms: _99  and  _100
REMARK   41  A    between atoms: _100  and  _101
REMARK   42  A    between atoms: _101  and  _102
REMARK   43  A    between atoms: _102  and  _103
REMARK   44  A    between atoms: _107  and  _109
REMARK   45  A    between atoms: _109  and  _110
REMARK   46  A    between atoms: _109  and  _112
REMARK   47  A    between atoms: _115  and  _117
REMARK   48  A    between atoms: _117  and  _118
REMARK   49  A    between atoms: _117  and  _120
REMARK   50  A    between atoms: _120  and  _121
REMARK   51  A    between atoms: _121  and  _122
REMARK   52  A    between atoms: _122  and  _123
REMARK   53  A    between atoms: _132  and  _134
REMARK   54  A    between atoms: _134  and  _135
REMARK   55  A    between atoms: _134  and  _137
REMARK   56  A    between atoms: _139  and  _141
REMARK   57  A    between atoms: _141  and  _142
REMARK   58  A    between atoms: _141  and  _144
REMARK   59  A    between atoms: _144  and  _145
REMARK   60  A    between atoms: _150  and  _151
REMARK   61  A    between atoms: _153  and  _155
REMARK   62  A    between atoms: _155  and  _156
REMARK   63  A    between atoms: _158  and  _160
REMARK   64  A    between atoms: _160  and  _161
REMARK   65  A    between atoms: _163  and  _165
REMARK   66  A    between atoms: _165  and  _166
REMARK   67  A    between atoms: _165  and  _168
REMARK   68  A    between atoms: _168  and  _169
REMARK   69  A    between atoms: _172  and  _174
REMARK   70  A    between atoms: _174  and  _175
REMARK   71  A    between atoms: _174  and  _177
REMARK   72  A    between atoms: _177  and  _178
REMARK   73  A    between atoms: _178  and  _179
REMARK   74  A    between atoms: _184  and  _186
REMARK   75  A    between atoms: _186  and  _187
REMARK   76  A    between atoms: _186  and  _189
REMARK   77  A    between atoms: _189  and  _190
REMARK   78  A    between atoms: _192  and  _194
REMARK   79  A    between atoms: _194  and  _195
REMARK   80  A    between atoms: _194  and  _197
REMARK   81  A    between atoms: _197  and  _198
REMARK   82  A    between atoms: _208  and  _210
REMARK   83  A    between atoms: _210  and  _211
REMARK   84  A    between atoms: _210  and  _213
REMARK   85  A    between atoms: _213  and  _214
REMARK   86  A    between atoms: _214  and  _215
REMARK   87  A    between atoms: _215  and  _216
REMARK   88  A    between atoms: _216  and  _217
REMARK   89  A    between atoms: _221  and  _223
REMARK   90  A    between atoms: _223  and  _224
REMARK   91  A    between atoms: _223  and  _226
REMARK   92  A    between atoms: _226  and  _227
REMARK   93  A    between atoms: _227  and  _228
REMARK   94  A    between atoms: _228  and  _229
REMARK   95  A    between atoms: _238  and  _240
REMARK   96  A    between atoms: _240  and  _241
REMARK   97  A    between atoms: _240  and  _243
REMARK   98  A    between atoms: _243  and  _244
REMARK   99  A    between atoms: _247  and  _249
REMARK  100  A    between atoms: _249  and  _250
REMARK  101  A    between atoms: _249  and  _252
REMARK  102  A    between atoms: _252  and  _253
REMARK  103  A    between atoms: _257  and  _258
REMARK  104  A    between atoms: _263  and  _265
REMARK  105  A    between atoms: _265  and  _266
REMARK  106  A    between atoms: _265  and  _268
REMARK  107  A    between atoms: _268  and  _269
REMARK  108  A    between atoms: _269  and  _270
REMARK  109  A    between atoms: _273  and  _275
REMARK  110  A    between atoms: _275  and  _276
REMARK  111  A    between atoms: _275  and  _278
REMARK  112  A    between atoms: _278  and  _279
REMARK  113  A    between atoms: _284  and  _286
REMARK  114  A    between atoms: _286  and  _287
REMARK  115  A    between atoms: _286  and  _289
REMARK  116  A    between atoms: _289  and  _290
REMARK  117  A    between atoms: _290  and  _291
REMARK  118  A    between atoms: _291  and  _292
REMARK  119  A    between atoms: _292  and  _293
REMARK  120  A    between atoms: _297  and  _299
REMARK  121  A    between atoms: _299  and  _300
REMARK  122  A    between atoms: _299  and  _302
REMARK  123  A    between atoms: _302  and  _303
REMARK  124  A    between atoms: _313  and  _315
REMARK  125  A    between atoms: _315  and  _316
REMARK  126  A    between atoms: _315  and  _318
REMARK  127  A    between atoms: _318  and  _319
REMARK                            x       y       z     vdW  Elec       q    Type
REMARK                         _______ _______ _______ _____ _____    ______ ____
ROOT
ATOM      1  O   HOH     1      84.857  56.984  13.477  0.00  0.00    +0.000 OA
ENDROOT
TORSDOF 0
REMARK  Name = ../refined-set-2016/3f7h/3f7h_pocket.pdb
REMARK  127 active torsions:
REMARK  status: ('A' for Active; 'I' for Inactive)
REMARK    1  A    between atoms: _1  and  _3
REMARK    2  A    between atoms: _3  and  _4
REMARK    3  A    between atoms: _3  and  _6
REMARK    4  A    between atoms: _9  and  _11
REMARK    5  A    between atoms: _11  and  _12
REMARK    6  A    between atoms: _11  and  _14
REMARK    7  A    between atoms: _14  and  _15
REMARK    8  A    between atoms: _18  and  _20
REMARK    9  A    between atoms: _20  and  _21
REMARK   10  A    between atoms: _20  and  _23
REMARK   11  A    between atoms: _23  and  _24
REMARK   12  A    between atoms: _30  and  _32
REMARK   13  A    between atoms: _32  and  _33
REMARK   14  A    between atoms: _32  and  _35
REMARK   15  A    between atoms: _35  and  _36
REMARK   16  A    between atoms: _42  and  _44
REMARK   17  A    between atoms: _44  and  _45
REMARK   18  A    between atoms: _44  and  _47
REMARK   19  A    between atoms: _47  and  _48
REMARK   20  A    between atoms: _53  and  _55
REMARK   21  A    between atoms: _55  and  _56
REMARK   22  A    between atoms: _55  and  _58
REMARK   23  A    between atoms: _58  and  _59
REMARK   24  A    between atoms: _62  and  _64
REMARK   25  A    between atoms: _64  and  _65
REMARK   26  A    between atoms: _64  and  _67
REMARK   27  A    between atoms: _67  and  _68
REMARK   28  A    between atoms: _73  and  _75
REMARK   29  A    between atoms: _75  and  _76
REMARK   30  A    between atoms: _75  and  _78
REMARK   31  A    between atoms: _78  and  _79
REMARK   32  A    between atoms: _79  and  _80
REMARK   33  A    between atoms: _85  and  _87
REMARK   34  A    between atoms: _87  and  _88
REMARK   35  A    between atoms: _87  and  _90
REMARK   36  A    between atoms: _90  and  _91
REMARK   37  A    between atoms: _94  and  _96
REMARK   38  A    between atoms: _96  and  _97
REMARK   39  A    between atoms: _96  and  _99
REMARK   40  A    between atoms: _99  and  _100
REMARK   41  A    between atoms: _100  and  _101
REMARK   42  A    between atoms: _101  and  _102
REMARK   43  A    between atoms: _102  and  _103
REMARK   44  A    between atoms: _107  and  _109
REMARK   45  A    between atoms: _109  and  _110
REMARK   46  A    between atoms: _109  and  _112
REMARK   47  A    between atoms: _115  and  _117
REMARK   48  A    between atoms: _117  and  _118
REMARK   49  A    between atoms: _117  and  _120
REMARK   50  A    between atoms: _120  and  _121
REMARK   51  A    between atoms: _121  and  _122
REMARK   52  A    between atoms: _122  and  _123
REMARK   53  A    between atoms: _132  and  _134
REMARK   54  A    between atoms: _134  and  _135
REMARK   55  A    between atoms: _134  and  _137
REMARK   56  A    between atoms: _139  and  _141
REMARK   57  A    between atoms: _141  and  _142
REMARK   58  A    between atoms: _141  and  _144
REMARK   59  A    between atoms: _144  and  _145
REMARK   60  A    between atoms: _150  and  _151
REMARK   61  A    between atoms: _153  and  _155
REMARK   62  A    between atoms: _155  and  _156
REMARK   63  A    between atoms: _158  and  _160
REMARK   64  A    between atoms: _160  and  _161
REMARK   65  A    between atoms: _163  and  _165
REMARK   66  A    between atoms: _165  and  _166
REMARK   67  A    between atoms: _165  and  _168
REMARK   68  A    between atoms: _168  and  _169
REMARK   69  A    between atoms: _172  and  _174
REMARK   70  A    between atoms: _174  and  _175
REMARK   71  A    between atoms: _174  and  _177
REMARK   72  A    between atoms: _177  and  _178
REMARK   73  A    between atoms: _178  and  _179
REMARK   74  A    between atoms: _184  and  _186
REMARK   75  A    between atoms: _186  and  _187
REMARK   76  A    between atoms: _186  and  _189
REMARK   77  A    between atoms: _189  and  _190
REMARK   78  A    between atoms: _192  and  _194
REMARK   79  A    between atoms: _194  and  _195
REMARK   80  A    between atoms: _194  and  _197
REMARK   81  A    between atoms: _197  and  _198
REMARK   82  A    between atoms: _208  and  _210
REMARK   83  A    between atoms: _210  and  _211
REMARK   84  A    between atoms: _210  and  _213
REMARK   85  A    between atoms: _213  and  _214
REMARK   86  A    between atoms: _214  and  _215
REMARK   87  A    between atoms: _215  and  _216
REMARK   88  A    between atoms: _216  and  _217
REMARK   89  A    between atoms: _221  and  _223
REMARK   90  A    between atoms: _223  and  _224
REMARK   91  A    between atoms: _223  and  _226
REMARK   92  A    between atoms: _226  and  _227
REMARK   93  A    between atoms: _227  and  _228
REMARK   94  A    between atoms: _228  and  _229
REMARK   95  A    between atoms: _238  and  _240
REMARK   96  A    between atoms: _240  and  _241
REMARK   97  A    between atoms: _240  and  _243
REMARK   98  A    between atoms: _243  and  _244
REMARK   99  A    between atoms: _247  and  _249
REMARK  100  A    between atoms: _249  and  _250
REMARK  101  A    between atoms: _249  and  _252
REMARK  102  A    between atoms: _252  and  _253
REMARK  103  A    between atoms: _257  and  _258
REMARK  104  A    between atoms: _263  and  _265
REMARK  105  A    between atoms: _265  and  _266
REMARK  106  A    between atoms: _265  and  _268
REMARK  107  A    between atoms: _268  and  _269
REMARK  108  A    between atoms: _269  and  _270
REMARK  109  A    between atoms: _273  and  _275
REMARK  110  A    between atoms: _275  and  _276
REMARK  111  A    between atoms: _275  and  _278
REMARK  112  A    between atoms: _278  and  _279
REMARK  113  A    between atoms: _284  and  _286
REMARK  114  A    between atoms: _286  and  _287
REMARK  115  A    between atoms: _286  and  _289
REMARK  116  A    between atoms: _289  and  _290
REMARK  117  A    between atoms: _290  and  _291
REMARK  118  A    between atoms: _291  and  _292
REMARK  119  A    between atoms: _292  and  _293
REMARK  120  A    between atoms: _297  and  _299
REMARK  121  A    between atoms: _299  and  _300
REMARK  122  A    between atoms: _299  and  _302
REMARK  123  A    between atoms: _302  and  _303
REMARK  124  A    between atoms: _313  and  _315
REMARK  125  A    between atoms: _315  and  _316
REMARK  126  A    between atoms: _315  and  _318
REMARK  127  A    between atoms: _318  and  _319
REMARK                            x       y       z     vdW  Elec       q    Type
REMARK                         _______ _______ _______ _____ _____    ______ ____
ROOT
ATOM      1  O   HOH     1      84.276  55.029  19.652  0.00  0.00    +0.000 OA
ENDROOT
TORSDOF 0
REMARK  Name = ../refined-set-2016/3f7h/3f7h_pocket.pdb
REMARK  127 active torsions:
REMARK  status: ('A' for Active; 'I' for Inactive)
REMARK    1  A    between atoms: _1  and  _3
REMARK    2  A    between atoms: _3  and  _4
REMARK    3  A    between atoms: _3  and  _6
REMARK    4  A    between atoms: _9  and  _11
REMARK    5  A    between atoms: _11  and  _12
REMARK    6  A    between atoms: _11  and  _14
REMARK    7  A    between atoms: _14  and  _15
REMARK    8  A    between atoms: _18  and  _20
REMARK    9  A    between atoms: _20  and  _21
REMARK   10  A    between atoms: _20  and  _23
REMARK   11  A    between atoms: _23  and  _24
REMARK   12  A    between atoms: _30  and  _32
REMARK   13  A    between atoms: _32  and  _33
REMARK   14  A    between atoms: _32  and  _35
REMARK   15  A    between atoms: _35  and  _36
REMARK   16  A    between atoms: _42  and  _44
REMARK   17  A    between atoms: _44  and  _45
REMARK   18  A    between atoms: _44  and  _47
REMARK   19  A    between atoms: _47  and  _48
REMARK   20  A    between atoms: _53  and  _55
REMARK   21  A    between atoms: _55  and  _56
REMARK   22  A    between atoms: _55  and  _58
REMARK   23  A    between atoms: _58  and  _59
REMARK   24  A    between atoms: _62  and  _64
REMARK   25  A    between atoms: _64  and  _65
REMARK   26  A    between atoms: _64  and  _67
REMARK   27  A    between atoms: _67  and  _68
REMARK   28  A    between atoms: _73  and  _75
REMARK   29  A    between atoms: _75  and  _76
REMARK   30  A    between atoms: _75  and  _78
REMARK   31  A    between atoms: _78  and  _79
REMARK   32  A    between atoms: _79  and  _80
REMARK   33  A    between atoms: _85  and  _87
REMARK   34  A    between atoms: _87  and  _88
REMARK   35  A    between atoms: _87  and  _90
REMARK   36  A    between atoms: _90  and  _91
REMARK   37  A    between atoms: _94  and  _96
REMARK   38  A    between atoms: _96  and  _97
REMARK   39  A    between atoms: _96  and  _99
REMARK   40  A    between atoms: _99  and  _100
REMARK   41  A    between atoms: _100  and  _101
REMARK   42  A    between atoms: _101  and  _102
REMARK   43  A    between atoms: _102  and  _103
REMARK   44  A    between atoms: _107  and  _109
REMARK   45  A    between atoms: _109  and  _110
REMARK   46  A    between atoms: _109  and  _112
REMARK   47  A    between atoms: _115  and  _117
REMARK   48  A    between atoms: _117  and  _118
REMARK   49  A    between atoms: _117  and  _120
REMARK   50  A    between atoms: _120  and  _121
REMARK   51  A    between atoms: _121  and  _122
REMARK   52  A    between atoms: _122  and  _123
REMARK   53  A    between atoms: _132  and  _134
REMARK   54  A    between atoms: _134  and  _135
REMARK   55  A    between atoms: _134  and  _137
REMARK   56  A    between atoms: _139  and  _141
REMARK   57  A    between atoms: _141  and  _142
REMARK   58  A    between atoms: _141  and  _144
REMARK   59  A    between atoms: _144  and  _145
REMARK   60  A    between atoms: _150  and  _151
REMARK   61  A    between atoms: _153  and  _155
REMARK   62  A    between atoms: _155  and  _156
REMARK   63  A    between atoms: _158  and  _160
REMARK   64  A    between atoms: _160  and  _161
REMARK   65  A    between atoms: _163  and  _165
REMARK   66  A    between atoms: _165  and  _166
REMARK   67  A    between atoms: _165  and  _168
REMARK   68  A    between atoms: _168  and  _169
REMARK   69  A    between atoms: _172  and  _174
REMARK   70  A    between atoms: _174  and  _175
REMARK   71  A    between atoms: _174  and  _177
REMARK   72  A    between atoms: _177  and  _178
REMARK   73  A    between atoms: _178  and  _179
REMARK   74  A    between atoms: _184  and  _186
REMARK   75  A    between atoms: _186  and  _187
REMARK   76  A    between atoms: _186  and  _189
REMARK   77  A    between atoms: _189  and  _190
REMARK   78  A    between atoms: _192  and  _194
REMARK   79  A    between atoms: _194  and  _195
REMARK   80  A    between atoms: _194  and  _197
REMARK   81  A    between atoms: _197  and  _198
REMARK   82  A    between atoms: _208  and  _210
REMARK   83  A    between atoms: _210  and  _211
REMARK   84  A    between atoms: _210  and  _213
REMARK   85  A    between atoms: _213  and  _214
REMARK   86  A    between atoms: _214  and  _215
REMARK   87  A    between atoms: _215  and  _216
REMARK   88  A    between atoms: _216  and  _217
REMARK   89  A    between atoms: _221  and  _223
REMARK   90  A    between atoms: _223  and  _224
REMARK   91  A    between atoms: _223  and  _226
REMARK   92  A    between atoms: _226  and  _227
REMARK   93  A    between atoms: _227  and  _228
REMARK   94  A    between atoms: _228  and  _229
REMARK   95  A    between atoms: _238  and  _240
REMARK   96  A    between atoms: _240  and  _241
REMARK   97  A    between atoms: _240  and  _243
REMARK   98  A    between atoms: _243  and  _244
REMARK   99  A    between atoms: _247  and  _249
REMARK  100  A    between atoms: _249  and  _250
REMARK  101  A    between atoms: _249  and  _252
REMARK  102  A    between atoms: _252  and  _253
REMARK  103  A    between atoms: _257  and  _258
REMARK  104  A    between atoms: _263  and  _265
REMARK  105  A    between atoms: _265  and  _266
REMARK  106  A    between atoms: _265  and  _268
REMARK  107  A    between atoms: _268  and  _269
REMARK  108  A    between atoms: _269  and  _270
REMARK  109  A    between atoms: _273  and  _275
REMARK  110  A    between atoms: _275  and  _276
REMARK  111  A    between atoms: _275  and  _278
REMARK  112  A    between atoms: _278  and  _279
REMARK  113  A    between atoms: _284  and  _286
REMARK  114  A    between atoms: _286  and  _287
REMARK  115  A    between atoms: _286  and  _289
REMARK  116  A    between atoms: _289  and  _290
REMARK  117  A    between atoms: _290  and  _291
REMARK  118  A    between atoms: _291  and  _292
REMARK  119  A    between atoms: _292  and  _293
REMARK  120  A    between atoms: _297  and  _299
REMARK  121  A    between atoms: _299  and  _300
REMARK  122  A    between atoms: _299  and  _302
REMARK  123  A    between atoms: _302  and  _303
REMARK  124  A    between atoms: _313  and  _315
REMARK  125  A    between atoms: _315  and  _316
REMARK  126  A    between atoms: _315  and  _318
REMARK  127  A    between atoms: _318  and  _319
REMARK                            x       y       z     vdW  Elec       q    Type
REMARK                         _______ _______ _______ _____ _____    ______ ____
ROOT
ATOM      1  O   HOH     1      93.055  58.527  15.756  0.00  0.00    +0.000 OA
ENDROOT
TORSDOF 0
REMARK  Name = ../refined-set-2016/3f7h/3f7h_pocket.pdb
REMARK  127 active torsions:
REMARK  status: ('A' for Active; 'I' for Inactive)
REMARK    1  A    between atoms: _1  and  _3
REMARK    2  A    between atoms: _3  and  _4
REMARK    3  A    between atoms: _3  and  _6
REMARK    4  A    between atoms: _9  and  _11
REMARK    5  A    between atoms: _11  and  _12
REMARK    6  A    between atoms: _11  and  _14
REMARK    7  A    between atoms: _14  and  _15
REMARK    8  A    between atoms: _18  and  _20
REMARK    9  A    between atoms: _20  and  _21
REMARK   10  A    between atoms: _20  and  _23
REMARK   11  A    between atoms: _23  and  _24
REMARK   12  A    between atoms: _30  and  _32
REMARK   13  A    between atoms: _32  and  _33
REMARK   14  A    between atoms: _32  and  _35
REMARK   15  A    between atoms: _35  and  _36
REMARK   16  A    between atoms: _42  and  _44
REMARK   17  A    between atoms: _44  and  _45
REMARK   18  A    between atoms: _44  and  _47
REMARK   19  A    between atoms: _47  and  _48
REMARK   20  A    between atoms: _53  and  _55
REMARK   21  A    between atoms: _55  and  _56
REMARK   22  A    between atoms: _55  and  _58
REMARK   23  A    between atoms: _58  and  _59
REMARK   24  A    between atoms: _62  and  _64
REMARK   25  A    between atoms: _64  and  _65
REMARK   26  A    between atoms: _64  and  _67
REMARK   27  A    between atoms: _67  and  _68
REMARK   28  A    between atoms: _73  and  _75
REMARK   29  A    between atoms: _75  and  _76
REMARK   30  A    between atoms: _75  and  _78
REMARK   31  A    between atoms: _78  and  _79
REMARK   32  A    between atoms: _79  and  _80
REMARK   33  A    between atoms: _85  and  _87
REMARK   34  A    between atoms: _87  and  _88
REMARK   35  A    between atoms: _87  and  _90
REMARK   36  A    between atoms: _90  and  _91
REMARK   37  A    between atoms: _94  and  _96
REMARK   38  A    between atoms: _96  and  _97
REMARK   39  A    between atoms: _96  and  _99
REMARK   40  A    between atoms: _99  and  _100
REMARK   41  A    between atoms: _100  and  _101
REMARK   42  A    between atoms: _101  and  _102
REMARK   43  A    between atoms: _102  and  _103
REMARK   44  A    between atoms: _107  and  _109
REMARK   45  A    between atoms: _109  and  _110
REMARK   46  A    between atoms: _109  and  _112
REMARK   47  A    between atoms: _115  and  _117
REMARK   48  A    between atoms: _117  and  _118
REMARK   49  A    between atoms: _117  and  _120
REMARK   50  A    between atoms: _120  and  _121
REMARK   51  A    between atoms: _121  and  _122
REMARK   52  A    between atoms: _122  and  _123
REMARK   53  A    between atoms: _132  and  _134
REMARK   54  A    between atoms: _134  and  _135
REMARK   55  A    between atoms: _134  and  _137
REMARK   56  A    between atoms: _139  and  _141
REMARK   57  A    between atoms: _141  and  _142
REMARK   58  A    between atoms: _141  and  _144
REMARK   59  A    between atoms: _144  and  _145
REMARK   60  A    between atoms: _150  and  _151
REMARK   61  A    between atoms: _153  and  _155
REMARK   62  A    between atoms: _155  and  _156
REMARK   63  A    between atoms: _158  and  _160
REMARK   64  A    between atoms: _160  and  _161
REMARK   65  A    between atoms: _163  and  _165
REMARK   66  A    between atoms: _165  and  _166
REMARK   67  A    between atoms: _165  and  _168
REMARK   68  A    between atoms: _168  and  _169
REMARK   69  A    between atoms: _172  and  _174
REMARK   70  A    between atoms: _174  and  _175
REMARK   71  A    between atoms: _174  and  _177
REMARK   72  A    between atoms: _177  and  _178
REMARK   73  A    between atoms: _178  and  _179
REMARK   74  A    between atoms: _184  and  _186
REMARK   75  A    between atoms: _186  and  _187
REMARK   76  A    between atoms: _186  and  _189
REMARK   77  A    between atoms: _189  and  _190
REMARK   78  A    between atoms: _192  and  _194
REMARK   79  A    between atoms: _194  and  _195
REMARK   80  A    between atoms: _194  and  _197
REMARK   81  A    between atoms: _197  and  _198
REMARK   82  A    between atoms: _208  and  _210
REMARK   83  A    between atoms: _210  and  _211
REMARK   84  A    between atoms: _210  and  _213
REMARK   85  A    between atoms: _213  and  _214
REMARK   86  A    between atoms: _214  and  _215
REMARK   87  A    between atoms: _215  and  _216
REMARK   88  A    between atoms: _216  and  _217
REMARK   89  A    between atoms: _221  and  _223
REMARK   90  A    between atoms: _223  and  _224
REMARK   91  A    between atoms: _223  and  _226
REMARK   92  A    between atoms: _226  and  _227
REMARK   93  A    between atoms: _227  and  _228
REMARK   94  A    between atoms: _228  and  _229
REMARK   95  A    between atoms: _238  and  _240
REMARK   96  A    between atoms: _240  and  _241
REMARK   97  A    between atoms: _240  and  _243
REMARK   98  A    between atoms: _243  and  _244
REMARK   99  A    between atoms: _247  and  _249
REMARK  100  A    between atoms: _249  and  _250
REMARK  101  A    between atoms: _249  and  _252
REMARK  102  A    between atoms: _252  and  _253
REMARK  103  A    between atoms: _257  and  _258
REMARK  104  A    between atoms: _263  and  _265
REMARK  105  A    between atoms: _265  and  _266
REMARK  106  A    between atoms: _265  and  _268
REMARK  107  A    between atoms: _268  and  _269
REMARK  108  A    between atoms: _269  and  _270
REMARK  109  A    between atoms: _273  and  _275
REMARK  110  A    between atoms: _275  and  _276
REMARK  111  A    between atoms: _275  and  _278
REMARK  112  A    between atoms: _278  and  _279
REMARK  113  A    between atoms: _284  and  _286
REMARK  114  A    between atoms: _286  and  _287
REMARK  115  A    between atoms: _286  and  _289
REMARK  116  A    between atoms: _289  and  _290
REMARK  117  A    between atoms: _290  and  _291
REMARK  118  A    between atoms: _291  and  _292
REMARK  119  A    between atoms: _292  and  _293
REMARK  120  A    between atoms: _297  and  _299
REMARK  121  A    between atoms: _299  and  _300
REMARK  122  A    between atoms: _299  and  _302
REMARK  123  A    between atoms: _302  and  _303
REMARK  124  A    between atoms: _313  and  _315
REMARK  125  A    between atoms: _315  and  _316
REMARK  126  A    between atoms: _315  and  _318
REMARK  127  A    between atoms: _318  and  _319
REMARK                            x       y       z     vdW  Elec       q    Type
REMARK                         _______ _______ _______ _____ _____    ______ ____
ROOT
ATOM      1  O   HOH     1      88.191  62.484  11.684  0.00  0.00    +0.000 OA
ENDROOT
TORSDOF 0
REMARK  Name = ../refined-set-2016/3f7h/3f7h_pocket.pdb
REMARK  127 active torsions:
REMARK  status: ('A' for Active; 'I' for Inactive)
REMARK    1  A    between atoms: _1  and  _3
REMARK    2  A    between atoms: _3  and  _4
REMARK    3  A    between atoms: _3  and  _6
REMARK    4  A    between atoms: _9  and  _11
REMARK    5  A    between atoms: _11  and  _12
REMARK    6  A    between atoms: _11  and  _14
REMARK    7  A    between atoms: _14  and  _15
REMARK    8  A    between atoms: _18  and  _20
REMARK    9  A    between atoms: _20  and  _21
REMARK   10  A    between atoms: _20  and  _23
REMARK   11  A    between atoms: _23  and  _24
REMARK   12  A    between atoms: _30  and  _32
REMARK   13  A    between atoms: _32  and  _33
REMARK   14  A    between atoms: _32  and  _35
REMARK   15  A    between atoms: _35  and  _36
REMARK   16  A    between atoms: _42  and  _44
REMARK   17  A    between atoms: _44  and  _45
REMARK   18  A    between atoms: _44  and  _47
REMARK   19  A    between atoms: _47  and  _48
REMARK   20  A    between atoms: _53  and  _55
REMARK   21  A    between atoms: _55  and  _56
REMARK   22  A    between atoms: _55  and  _58
REMARK   23  A    between atoms: _58  and  _59
REMARK   24  A    between atoms: _62  and  _64
REMARK   25  A    between atoms: _64  and  _65
REMARK   26  A    between atoms: _64  and  _67
REMARK   27  A    between atoms: _67  and  _68
REMARK   28  A    between atoms: _73  and  _75
REMARK   29  A    between atoms: _75  and  _76
REMARK   30  A    between atoms: _75  and  _78
REMARK   31  A    between atoms: _78  and  _79
REMARK   32  A    between atoms: _79  and  _80
REMARK   33  A    between atoms: _85  and  _87
REMARK   34  A    between atoms: _87  and  _88
REMARK   35  A    between atoms: _87  and  _90
REMARK   36  A    between atoms: _90  and  _91
REMARK   37  A    between atoms: _94  and  _96
REMARK   38  A    between atoms: _96  and  _97
REMARK   39  A    between atoms: _96  and  _99
REMARK   40  A    between atoms: _99  and  _100
REMARK   41  A    between atoms: _100  and  _101
REMARK   42  A    between atoms: _101  and  _102
REMARK   43  A    between atoms: _102  and  _103
REMARK   44  A    between atoms: _107  and  _109
REMARK   45  A    between atoms: _109  and  _110
REMARK   46  A    between atoms: _109  and  _112
REMARK   47  A    between atoms: _115  and  _117
REMARK   48  A    between atoms: _117  and  _118
REMARK   49  A    between atoms: _117  and  _120
REMARK   50  A    between atoms: _120  and  _121
REMARK   51  A    between atoms: _121  and  _122
REMARK   52  A    between atoms: _122  and  _123
REMARK   53  A    between atoms: _132  and  _134
REMARK   54  A    between atoms: _134  and  _135
REMARK   55  A    between atoms: _134  and  _137
REMARK   56  A    between atoms: _139  and  _141
REMARK   57  A    between atoms: _141  and  _142
REMARK   58  A    between atoms: _141  and  _144
REMARK   59  A    between atoms: _144  and  _145
REMARK   60  A    between atoms: _150  and  _151
REMARK   61  A    between atoms: _153  and  _155
REMARK   62  A    between atoms: _155  and  _156
REMARK   63  A    between atoms: _158  and  _160
REMARK   64  A    between atoms: _160  and  _161
REMARK   65  A    between atoms: _163  and  _165
REMARK   66  A    between atoms: _165  and  _166
REMARK   67  A    between atoms: _165  and  _168
REMARK   68  A    between atoms: _168  and  _169
REMARK   69  A    between atoms: _172  and  _174
REMARK   70  A    between atoms: _174  and  _175
REMARK   71  A    between atoms: _174  and  _177
REMARK   72  A    between atoms: _177  and  _178
REMARK   73  A    between atoms: _178  and  _179
REMARK   74  A    between atoms: _184  and  _186
REMARK   75  A    between atoms: _186  and  _187
REMARK   76  A    between atoms: _186  and  _189
REMARK   77  A    between atoms: _189  and  _190
REMARK   78  A    between atoms: _192  and  _194
REMARK   79  A    between atoms: _194  and  _195
REMARK   80  A    between atoms: _194  and  _197
REMARK   81  A    between atoms: _197  and  _198
REMARK   82  A    between atoms: _208  and  _210
REMARK   83  A    between atoms: _210  and  _211
REMARK   84  A    between atoms: _210  and  _213
REMARK   85  A    between atoms: _213  and  _214
REMARK   86  A    between atoms: _214  and  _215
REMARK   87  A    between atoms: _215  and  _216
REMARK   88  A    between atoms: _216  and  _217
REMARK   89  A    between atoms: _221  and  _223
REMARK   90  A    between atoms: _223  and  _224
REMARK   91  A    between atoms: _223  and  _226
REMARK   92  A    between atoms: _226  and  _227
REMARK   93  A    between atoms: _227  and  _228
REMARK   94  A    between atoms: _228  and  _229
REMARK   95  A    between atoms: _238  and  _240
REMARK   96  A    between atoms: _240  and  _241
REMARK   97  A    between atoms: _240  and  _243
REMARK   98  A    between atoms: _243  and  _244
REMARK   99  A    between atoms: _247  and  _249
REMARK  100  A    between atoms: _249  and  _250
REMARK  101  A    between atoms: _249  and  _252
REMARK  102  A    between atoms: _252  and  _253
REMARK  103  A    between atoms: _257  and  _258
REMARK  104  A    between atoms: _263  and  _265
REMARK  105  A    between atoms: _265  and  _266
REMARK  106  A    between atoms: _265  and  _268
REMARK  107  A    between atoms: _268  and  _269
REMARK  108  A    between atoms: _269  and  _270
REMARK  109  A    between atoms: _273  and  _275
REMARK  110  A    between atoms: _275  and  _276
REMARK  111  A    between atoms: _275  and  _278
REMARK  112  A    between atoms: _278  and  _279
REMARK  113  A    between atoms: _284  and  _286
REMARK  114  A    between atoms: _286  and  _287
REMARK  115  A    between atoms: _286  and  _289
REMARK  116  A    between atoms: _289  and  _290
REMARK  117  A    between atoms: _290  and  _291
REMARK  118  A    between atoms: _291  and  _292
REMARK  119  A    between atoms: _292  and  _293
REMARK  120  A    between atoms: _297  and  _299
REMARK  121  A    between atoms: _299  and  _300
REMARK  122  A    between atoms: _299  and  _302
REMARK  123  A    between atoms: _302  and  _303
REMARK  124  A    between atoms: _313  and  _315
REMARK  125  A    between atoms: _315  and  _316
REMARK  126  A    between atoms: _315  and  _318
REMARK  127  A    between atoms: _318  and  _319
REMARK                            x       y       z     vdW  Elec       q    Type
REMARK                         _______ _______ _______ _____ _____    ______ ____
ROOT
ATOM      1  O   HOH     1      72.521  65.081  22.727  0.00  0.00    +0.000 OA
ENDROOT
TORSDOF 0
REMARK  Name = ../refined-set-2016/3f7h/3f7h_pocket.pdb
REMARK  127 active torsions:
REMARK  status: ('A' for Active; 'I' for Inactive)
REMARK    1  A    between atoms: _1  and  _3
REMARK    2  A    between atoms: _3  and  _4
REMARK    3  A    between atoms: _3  and  _6
REMARK    4  A    between atoms: _9  and  _11
REMARK    5  A    between atoms: _11  and  _12
REMARK    6  A    between atoms: _11  and  _14
REMARK    7  A    between atoms: _14  and  _15
REMARK    8  A    between atoms: _18  and  _20
REMARK    9  A    between atoms: _20  and  _21
REMARK   10  A    between atoms: _20  and  _23
REMARK   11  A    between atoms: _23  and  _24
REMARK   12  A    between atoms: _30  and  _32
REMARK   13  A    between atoms: _32  and  _33
REMARK   14  A    between atoms: _32  and  _35
REMARK   15  A    between atoms: _35  and  _36
REMARK   16  A    between atoms: _42  and  _44
REMARK   17  A    between atoms: _44  and  _45
REMARK   18  A    between atoms: _44  and  _47
REMARK   19  A    between atoms: _47  and  _48
REMARK   20  A    between atoms: _53  and  _55
REMARK   21  A    between atoms: _55  and  _56
REMARK   22  A    between atoms: _55  and  _58
REMARK   23  A    between atoms: _58  and  _59
REMARK   24  A    between atoms: _62  and  _64
REMARK   25  A    between atoms: _64  and  _65
REMARK   26  A    between atoms: _64  and  _67
REMARK   27  A    between atoms: _67  and  _68
REMARK   28  A    between atoms: _73  and  _75
REMARK   29  A    between atoms: _75  and  _76
REMARK   30  A    between atoms: _75  and  _78
REMARK   31  A    between atoms: _78  and  _79
REMARK   32  A    between atoms: _79  and  _80
REMARK   33  A    between atoms: _85  and  _87
REMARK   34  A    between atoms: _87  and  _88
REMARK   35  A    between atoms: _87  and  _90
REMARK   36  A    between atoms: _90  and  _91
REMARK   37  A    between atoms: _94  and  _96
REMARK   38  A    between atoms: _96  and  _97
REMARK   39  A    between atoms: _96  and  _99
REMARK   40  A    between atoms: _99  and  _100
REMARK   41  A    between atoms: _100  and  _101
REMARK   42  A    between atoms: _101  and  _102
REMARK   43  A    between atoms: _102  and  _103
REMARK   44  A    between atoms: _107  and  _109
REMARK   45  A    between atoms: _109  and  _110
REMARK   46  A    between atoms: _109  and  _112
REMARK   47  A    between atoms: _115  and  _117
REMARK   48  A    between atoms: _117  and  _118
REMARK   49  A    between atoms: _117  and  _120
REMARK   50  A    between atoms: _120  and  _121
REMARK   51  A    between atoms: _121  and  _122
REMARK   52  A    between atoms: _122  and  _123
REMARK   53  A    between atoms: _132  and  _134
REMARK   54  A    between atoms: _134  and  _135
REMARK   55  A    between atoms: _134  and  _137
REMARK   56  A    between atoms: _139  and  _141
REMARK   57  A    between atoms: _141  and  _142
REMARK   58  A    between atoms: _141  and  _144
REMARK   59  A    between atoms: _144  and  _145
REMARK   60  A    between atoms: _150  and  _151
REMARK   61  A    between atoms: _153  and  _155
REMARK   62  A    between atoms: _155  and  _156
REMARK   63  A    between atoms: _158  and  _160
REMARK   64  A    between atoms: _160  and  _161
REMARK   65  A    between atoms: _163  and  _165
REMARK   66  A    between atoms: _165  and  _166
REMARK   67  A    between atoms: _165  and  _168
REMARK   68  A    between atoms: _168  and  _169
REMARK   69  A    between atoms: _172  and  _174
REMARK   70  A    between atoms: _174  and  _175
REMARK   71  A    between atoms: _174  and  _177
REMARK   72  A    between atoms: _177  and  _178
REMARK   73  A    between atoms: _178  and  _179
REMARK   74  A    between atoms: _184  and  _186
REMARK   75  A    between atoms: _186  and  _187
REMARK   76  A    between atoms: _186  and  _189
REMARK   77  A    between atoms: _189  and  _190
REMARK   78  A    between atoms: _192  and  _194
REMARK   79  A    between atoms: _194  and  _195
REMARK   80  A    between atoms: _194  and  _197
REMARK   81  A    between atoms: _197  and  _198
REMARK   82  A    between atoms: _208  and  _210
REMARK   83  A    between atoms: _210  and  _211
REMARK   84  A    between atoms: _210  and  _213
REMARK   85  A    between atoms: _213  and  _214
REMARK   86  A    between atoms: _214  and  _215
REMARK   87  A    between atoms: _215  and  _216
REMARK   88  A    between atoms: _216  and  _217
REMARK   89  A    between atoms: _221  and  _223
REMARK   90  A    between atoms: _223  and  _224
REMARK   91  A    between atoms: _223  and  _226
REMARK   92  A    between atoms: _226  and  _227
REMARK   93  A    between atoms: _227  and  _228
REMARK   94  A    between atoms: _228  and  _229
REMARK   95  A    between atoms: _238  and  _240
REMARK   96  A    between atoms: _240  and  _241
REMARK   97  A    between atoms: _240  and  _243
REMARK   98  A    between atoms: _243  and  _244
REMARK   99  A    between atoms: _247  and  _249
REMARK  100  A    between atoms: _249  and  _250
REMARK  101  A    between atoms: _249  and  _252
REMARK  102  A    between atoms: _252  and  _253
REMARK  103  A    between atoms: _257  and  _258
REMARK  104  A    between atoms: _263  and  _265
REMARK  105  A    between atoms: _265  and  _266
REMARK  106  A    between atoms: _265  and  _268
REMARK  107  A    between atoms: _268  and  _269
REMARK  108  A    between atoms: _269  and  _270
REMARK  109  A    between atoms: _273  and  _275
REMARK  110  A    between atoms: _275  and  _276
REMARK  111  A    between atoms: _275  and  _278
REMARK  112  A    between atoms: _278  and  _279
REMARK  113  A    between atoms: _284  and  _286
REMARK  114  A    between atoms: _286  and  _287
REMARK  115  A    between atoms: _286  and  _289
REMARK  116  A    between atoms: _289  and  _290
REMARK  117  A    between atoms: _290  and  _291
REMARK  118  A    between atoms: _291  and  _292
REMARK  119  A    between atoms: _292  and  _293
REMARK  120  A    between atoms: _297  and  _299
REMARK  121  A    between atoms: _299  and  _300
REMARK  122  A    between atoms: _299  and  _302
REMARK  123  A    between atoms: _302  and  _303
REMARK  124  A    between atoms: _313  and  _315
REMARK  125  A    between atoms: _315  and  _316
REMARK  126  A    between atoms: _315  and  _318
REMARK  127  A    between atoms: _318  and  _319
REMARK                            x       y       z     vdW  Elec       q    Type
REMARK                         _______ _______ _______ _____ _____    ______ ____
ROOT
ATOM      1  O   HOH     1      77.132  66.915  14.896  0.00  0.00    +0.000 OA
ENDROOT
TORSDOF 0
REMARK  Name = ../refined-set-2016/3f7h/3f7h_pocket.pdb
REMARK  127 active torsions:
REMARK  status: ('A' for Active; 'I' for Inactive)
REMARK    1  A    between atoms: _1  and  _3
REMARK    2  A    between atoms: _3  and  _4
REMARK    3  A    between atoms: _3  and  _6
REMARK    4  A    between atoms: _9  and  _11
REMARK    5  A    between atoms: _11  and  _12
REMARK    6  A    between atoms: _11  and  _14
REMARK    7  A    between atoms: _14  and  _15
REMARK    8  A    between atoms: _18  and  _20
REMARK    9  A    between atoms: _20  and  _21
REMARK   10  A    between atoms: _20  and  _23
REMARK   11  A    between atoms: _23  and  _24
REMARK   12  A    between atoms: _30  and  _32
REMARK   13  A    between atoms: _32  and  _33
REMARK   14  A    between atoms: _32  and  _35
REMARK   15  A    between atoms: _35  and  _36
REMARK   16  A    between atoms: _42  and  _44
REMARK   17  A    between atoms: _44  and  _45
REMARK   18  A    between atoms: _44  and  _47
REMARK   19  A    between atoms: _47  and  _48
REMARK   20  A    between atoms: _53  and  _55
REMARK   21  A    between atoms: _55  and  _56
REMARK   22  A    between atoms: _55  and  _58
REMARK   23  A    between atoms: _58  and  _59
REMARK   24  A    between atoms: _62  and  _64
REMARK   25  A    between atoms: _64  and  _65
REMARK   26  A    between atoms: _64  and  _67
REMARK   27  A    between atoms: _67  and  _68
REMARK   28  A    between atoms: _73  and  _75
REMARK   29  A    between atoms: _75  and  _76
REMARK   30  A    between atoms: _75  and  _78
REMARK   31  A    between atoms: _78  and  _79
REMARK   32  A    between atoms: _79  and  _80
REMARK   33  A    between atoms: _85  and  _87
REMARK   34  A    between atoms: _87  and  _88
REMARK   35  A    between atoms: _87  and  _90
REMARK   36  A    between atoms: _90  and  _91
REMARK   37  A    between atoms: _94  and  _96
REMARK   38  A    between atoms: _96  and  _97
REMARK   39  A    between atoms: _96  and  _99
REMARK   40  A    between atoms: _99  and  _100
REMARK   41  A    between atoms: _100  and  _101
REMARK   42  A    between atoms: _101  and  _102
REMARK   43  A    between atoms: _102  and  _103
REMARK   44  A    between atoms: _107  and  _109
REMARK   45  A    between atoms: _109  and  _110
REMARK   46  A    between atoms: _109  and  _112
REMARK   47  A    between atoms: _115  and  _117
REMARK   48  A    between atoms: _117  and  _118
REMARK   49  A    between atoms: _117  and  _120
REMARK   50  A    between atoms: _120  and  _121
REMARK   51  A    between atoms: _121  and  _122
REMARK   52  A    between atoms: _122  and  _123
REMARK   53  A    between atoms: _132  and  _134
REMARK   54  A    between atoms: _134  and  _135
REMARK   55  A    between atoms: _134  and  _137
REMARK   56  A    between atoms: _139  and  _141
REMARK   57  A    between atoms: _141  and  _142
REMARK   58  A    between atoms: _141  and  _144
REMARK   59  A    between atoms: _144  and  _145
REMARK   60  A    between atoms: _150  and  _151
REMARK   61  A    between atoms: _153  and  _155
REMARK   62  A    between atoms: _155  and  _156
REMARK   63  A    between atoms: _158  and  _160
REMARK   64  A    between atoms: _160  and  _161
REMARK   65  A    between atoms: _163  and  _165
REMARK   66  A    between atoms: _165  and  _166
REMARK   67  A    between atoms: _165  and  _168
REMARK   68  A    between atoms: _168  and  _169
REMARK   69  A    between atoms: _172  and  _174
REMARK   70  A    between atoms: _174  and  _175
REMARK   71  A    between atoms: _174  and  _177
REMARK   72  A    between atoms: _177  and  _178
REMARK   73  A    between atoms: _178  and  _179
REMARK   74  A    between atoms: _184  and  _186
REMARK   75  A    between atoms: _186  and  _187
REMARK   76  A    between atoms: _186  and  _189
REMARK   77  A    between atoms: _189  and  _190
REMARK   78  A    between atoms: _192  and  _194
REMARK   79  A    between atoms: _194  and  _195
REMARK   80  A    between atoms: _194  and  _197
REMARK   81  A    between atoms: _197  and  _198
REMARK   82  A    between atoms: _208  and  _210
REMARK   83  A    between atoms: _210  and  _211
REMARK   84  A    between atoms: _210  and  _213
REMARK   85  A    between atoms: _213  and  _214
REMARK   86  A    between atoms: _214  and  _215
REMARK   87  A    between atoms: _215  and  _216
REMARK   88  A    between atoms: _216  and  _217
REMARK   89  A    between atoms: _221  and  _223
REMARK   90  A    between atoms: _223  and  _224
REMARK   91  A    between atoms: _223  and  _226
REMARK   92  A    between atoms: _226  and  _227
REMARK   93  A    between atoms: _227  and  _228
REMARK   94  A    between atoms: _228  and  _229
REMARK   95  A    between atoms: _238  and  _240
REMARK   96  A    between atoms: _240  and  _241
REMARK   97  A    between atoms: _240  and  _243
REMARK   98  A    between atoms: _243  and  _244
REMARK   99  A    between atoms: _247  and  _249
REMARK  100  A    between atoms: _249  and  _250
REMARK  101  A    between atoms: _249  and  _252
REMARK  102  A    between atoms: _252  and  _253
REMARK  103  A    between atoms: _257  and  _258
REMARK  104  A    between atoms: _263  and  _265
REMARK  105  A    between atoms: _265  and  _266
REMARK  106  A    between atoms: _265  and  _268
REMARK  107  A    between atoms: _268  and  _269
REMARK  108  A    between atoms: _269  and  _270
REMARK  109  A    between atoms: _273  and  _275
REMARK  110  A    between atoms: _275  and  _276
REMARK  111  A    between atoms: _275  and  _278
REMARK  112  A    between atoms: _278  and  _279
REMARK  113  A    between atoms: _284  and  _286
REMARK  114  A    between atoms: _286  and  _287
REMARK  115  A    between atoms: _286  and  _289
REMARK  116  A    between atoms: _289  and  _290
REMARK  117  A    between atoms: _290  and  _291
REMARK  118  A    between atoms: _291  and  _292
REMARK  119  A    between atoms: _292  and  _293
REMARK  120  A    between atoms: _297  and  _299
REMARK  121  A    between atoms: _299  and  _300
REMARK  122  A    between atoms: _299  and  _302
REMARK  123  A    between atoms: _302  and  _303
REMARK  124  A    between atoms: _313  and  _315
REMARK  125  A    between atoms: _315  and  _316
REMARK  126  A    between atoms: _315  and  _318
REMARK  127  A    between atoms: _318  and  _319
REMARK                            x       y       z     vdW  Elec       q    Type
REMARK                         _______ _______ _______ _____ _____    ______ ____
ROOT
ATOM      1  O   HOH     1      79.249  56.190  18.873  0.00  0.00    +0.000 OA
ENDROOT
TORSDOF 0
REMARK  Name = ../refined-set-2016/3f7h/3f7h_pocket.pdb
REMARK  127 active torsions:
REMARK  status: ('A' for Active; 'I' for Inactive)
REMARK    1  A    between atoms: _1  and  _3
REMARK    2  A    between atoms: _3  and  _4
REMARK    3  A    between atoms: _3  and  _6
REMARK    4  A    between atoms: _9  and  _11
REMARK    5  A    between atoms: _11  and  _12
REMARK    6  A    between atoms: _11  and  _14
REMARK    7  A    between atoms: _14  and  _15
REMARK    8  A    between atoms: _18  and  _20
REMARK    9  A    between atoms: _20  and  _21
REMARK   10  A    between atoms: _20  and  _23
REMARK   11  A    between atoms: _23  and  _24
REMARK   12  A    between atoms: _30  and  _32
REMARK   13  A    between atoms: _32  and  _33
REMARK   14  A    between atoms: _32  and  _35
REMARK   15  A    between atoms: _35  and  _36
REMARK   16  A    between atoms: _42  and  _44
REMARK   17  A    between atoms: _44  and  _45
REMARK   18  A    between atoms: _44  and  _47
REMARK   19  A    between atoms: _47  and  _48
REMARK   20  A    between atoms: _53  and  _55
REMARK   21  A    between atoms: _55  and  _56
REMARK   22  A    between atoms: _55  and  _58
REMARK   23  A    between atoms: _58  and  _59
REMARK   24  A    between atoms: _62  and  _64
REMARK   25  A    between atoms: _64  and  _65
REMARK   26  A    between atoms: _64  and  _67
REMARK   27  A    between atoms: _67  and  _68
REMARK   28  A    between atoms: _73  and  _75
REMARK   29  A    between atoms: _75  and  _76
REMARK   30  A    between atoms: _75  and  _78
REMARK   31  A    between atoms: _78  and  _79
REMARK   32  A    between atoms: _79  and  _80
REMARK   33  A    between atoms: _85  and  _87
REMARK   34  A    between atoms: _87  and  _88
REMARK   35  A    between atoms: _87  and  _90
REMARK   36  A    between atoms: _90  and  _91
REMARK   37  A    between atoms: _94  and  _96
REMARK   38  A    between atoms: _96  and  _97
REMARK   39  A    between atoms: _96  and  _99
REMARK   40  A    between atoms: _99  and  _100
REMARK   41  A    between atoms: _100  and  _101
REMARK   42  A    between atoms: _101  and  _102
REMARK   43  A    between atoms: _102  and  _103
REMARK   44  A    between atoms: _107  and  _109
REMARK   45  A    between atoms: _109  and  _110
REMARK   46  A    between atoms: _109  and  _112
REMARK   47  A    between atoms: _115  and  _117
REMARK   48  A    between atoms: _117  and  _118
REMARK   49  A    between atoms: _117  and  _120
REMARK   50  A    between atoms: _120  and  _121
REMARK   51  A    between atoms: _121  and  _122
REMARK   52  A    between atoms: _122  and  _123
REMARK   53  A    between atoms: _132  and  _134
REMARK   54  A    between atoms: _134  and  _135
REMARK   55  A    between atoms: _134  and  _137
REMARK   56  A    between atoms: _139  and  _141
REMARK   57  A    between atoms: _141  and  _142
REMARK   58  A    between atoms: _141  and  _144
REMARK   59  A    between atoms: _144  and  _145
REMARK   60  A    between atoms: _150  and  _151
REMARK   61  A    between atoms: _153  and  _155
REMARK   62  A    between atoms: _155  and  _156
REMARK   63  A    between atoms: _158  and  _160
REMARK   64  A    between atoms: _160  and  _161
REMARK   65  A    between atoms: _163  and  _165
REMARK   66  A    between atoms: _165  and  _166
REMARK   67  A    between atoms: _165  and  _168
REMARK   68  A    between atoms: _168  and  _169
REMARK   69  A    between atoms: _172  and  _174
REMARK   70  A    between atoms: _174  and  _175
REMARK   71  A    between atoms: _174  and  _177
REMARK   72  A    between atoms: _177  and  _178
REMARK   73  A    between atoms: _178  and  _179
REMARK   74  A    between atoms: _184  and  _186
REMARK   75  A    between atoms: _186  and  _187
REMARK   76  A    between atoms: _186  and  _189
REMARK   77  A    between atoms: _189  and  _190
REMARK   78  A    between atoms: _192  and  _194
REMARK   79  A    between atoms: _194  and  _195
REMARK   80  A    between atoms: _194  and  _197
REMARK   81  A    between atoms: _197  and  _198
REMARK   82  A    between atoms: _208  and  _210
REMARK   83  A    between atoms: _210  and  _211
REMARK   84  A    between atoms: _210  and  _213
REMARK   85  A    between atoms: _213  and  _214
REMARK   86  A    between atoms: _214  and  _215
REMARK   87  A    between atoms: _215  and  _216
REMARK   88  A    between atoms: _216  and  _217
REMARK   89  A    between atoms: _221  and  _223
REMARK   90  A    between atoms: _223  and  _224
REMARK   91  A    between atoms: _223  and  _226
REMARK   92  A    between atoms: _226  and  _227
REMARK   93  A    between atoms: _227  and  _228
REMARK   94  A    between atoms: _228  and  _229
REMARK   95  A    between atoms: _238  and  _240
REMARK   96  A    between atoms: _240  and  _241
REMARK   97  A    between atoms: _240  and  _243
REMARK   98  A    between atoms: _243  and  _244
REMARK   99  A    between atoms: _247  and  _249
REMARK  100  A    between atoms: _249  and  _250
REMARK  101  A    between atoms: _249  and  _252
REMARK  102  A    between atoms: _252  and  _253
REMARK  103  A    between atoms: _257  and  _258
REMARK  104  A    between atoms: _263  and  _265
REMARK  105  A    between atoms: _265  and  _266
REMARK  106  A    between atoms: _265  and  _268
REMARK  107  A    between atoms: _268  and  _269
REMARK  108  A    between atoms: _269  and  _270
REMARK  109  A    between atoms: _273  and  _275
REMARK  110  A    between atoms: _275  and  _276
REMARK  111  A    between atoms: _275  and  _278
REMARK  112  A    between atoms: _278  and  _279
REMARK  113  A    between atoms: _284  and  _286
REMARK  114  A    between atoms: _286  and  _287
REMARK  115  A    between atoms: _286  and  _289
REMARK  116  A    between atoms: _289  and  _290
REMARK  117  A    between atoms: _290  and  _291
REMARK  118  A    between atoms: _291  and  _292
REMARK  119  A    between atoms: _292  and  _293
REMARK  120  A    between atoms: _297  and  _299
REMARK  121  A    between atoms: _299  and  _300
REMARK  122  A    between atoms: _299  and  _302
REMARK  123  A    between atoms: _302  and  _303
REMARK  124  A    between atoms: _313  and  _315
REMARK  125  A    between atoms: _315  and  _316
REMARK  126  A    between atoms: _315  and  _318
REMARK  127  A    between atoms: _318  and  _319
REMARK                            x       y       z     vdW  Elec       q    Type
REMARK                         _______ _______ _______ _____ _____    ______ ____
ROOT
ATOM      1  O   HOH     1      86.868  60.489  10.365  0.00  0.00    +0.000 OA
ENDROOT
TORSDOF 0
