REMARK  Name = ../refined-set-2016/4x5y/4x5y_pocket.pdb
REMARK  247 active torsions:
REMARK  status: ('A' for Active; 'I' for Inactive)
REMARK    1  A    between atoms: _1  and  _3
REMARK    2  A    between atoms: _3  and  _4
REMARK    3  A    between atoms: _3  and  _6
REMARK    4  A    between atoms: _6  and  _7
REMARK    5  A    between atoms: _10  and  _12
REMARK    6  A    between atoms: _12  and  _13
REMARK    7  A    between atoms: _12  and  _15
REMARK    8  A    between atoms: _15  and  _16
REMARK    9  A    between atoms: _18  and  _20
REMARK   10  A    between atoms: _20  and  _21
REMARK   11  A    between atoms: _20  and  _23
REMARK   12  A    between atoms: _23  and  _24
REMARK   13  A    between atoms: _26  and  _28
REMARK   14  A    between atoms: _28  and  _29
REMARK   15  A    between atoms: _31  and  _33
REMARK   16  A    between atoms: _33  and  _34
REMARK   17  A    between atoms: _37  and  _39
REMARK   18  A    between atoms: _39  and  _40
REMARK   19  A    between atoms: _39  and  _42
REMARK   20  A    between atoms: _42  and  _43
REMARK   21  A    between atoms: _49  and  _51
REMARK   22  A    between atoms: _51  and  _52
REMARK   23  A    between atoms: _51  and  _54
REMARK   24  A    between atoms: _54  and  _55
REMARK   25  A    between atoms: _58  and  _60
REMARK   26  A    between atoms: _60  and  _61
REMARK   27  A    between atoms: _64  and  _66
REMARK   28  A    between atoms: _66  and  _67
REMARK   29  A    between atoms: _66  and  _69
REMARK   30  A    between atoms: _69  and  _70
REMARK   31  A    between atoms: _73  and  _75
REMARK   32  A    between atoms: _75  and  _76
REMARK   33  A    between atoms: _75  and  _78
REMARK   34  A    between atoms: _78  and  _79
REMARK   35  A    between atoms: _81  and  _83
REMARK   36  A    between atoms: _83  and  _84
REMARK   37  A    between atoms: _83  and  _86
REMARK   38  A    between atoms: _86  and  _87
REMARK   39  A    between atoms: _87  and  _88
REMARK   40  A    between atoms: _91  and  _93
REMARK   41  A    between atoms: _93  and  _94
REMARK   42  A    between atoms: _93  and  _96
REMARK   43  A    between atoms: _96  and  _97
REMARK   44  A    between atoms: _100  and  _102
REMARK   45  A    between atoms: _102  and  _103
REMARK   46  A    between atoms: _102  and  _105
REMARK   47  A    between atoms: _105  and  _106
REMARK   48  A    between atoms: _111  and  _113
REMARK   49  A    between atoms: _113  and  _114
REMARK   50  A    between atoms: _117  and  _119
REMARK   51  A    between atoms: _119  and  _120
REMARK   52  A    between atoms: _119  and  _122
REMARK   53  A    between atoms: _122  and  _123
REMARK   54  A    between atoms: _133  and  _135
REMARK   55  A    between atoms: _135  and  _136
REMARK   56  A    between atoms: _135  and  _138
REMARK   57  A    between atoms: _138  and  _139
REMARK   58  A    between atoms: _142  and  _144
REMARK   59  A    between atoms: _144  and  _145
REMARK   60  A    between atoms: _144  and  _147
REMARK   61  A    between atoms: _147  and  _148
REMARK   62  A    between atoms: _158  and  _160
REMARK   63  A    between atoms: _160  and  _161
REMARK   64  A    between atoms: _160  and  _163
REMARK   65  A    between atoms: _163  and  _164
REMARK   66  A    between atoms: _169  and  _171
REMARK   67  A    between atoms: _171  and  _172
REMARK   68  A    between atoms: _174  and  _176
REMARK   69  A    between atoms: _176  and  _177
REMARK   70  A    between atoms: _176  and  _179
REMARK   71  A    between atoms: _179  and  _180
REMARK   72  A    between atoms: _190  and  _192
REMARK   73  A    between atoms: _192  and  _193
REMARK   74  A    between atoms: _192  and  _195
REMARK   75  A    between atoms: _195  and  _196
REMARK   76  A    between atoms: _199  and  _201
REMARK   77  A    between atoms: _201  and  _202
REMARK   78  A    between atoms: _201  and  _204
REMARK   79  A    between atoms: _204  and  _205
REMARK   80  A    between atoms: _205  and  _206
REMARK   81  A    between atoms: _208  and  _210
REMARK   82  A    between atoms: _210  and  _211
REMARK   83  A    between atoms: _210  and  _213
REMARK   84  A    between atoms: _215  and  _217
REMARK   85  A    between atoms: _217  and  _218
REMARK   86  A    between atoms: _221  and  _223
REMARK   87  A    between atoms: _223  and  _224
REMARK   88  A    between atoms: _223  and  _226
REMARK   89  A    between atoms: _226  and  _227
REMARK   90  A    between atoms: _233  and  _235
REMARK   91  A    between atoms: _235  and  _236
REMARK   92  A    between atoms: _235  and  _238
REMARK   93  A    between atoms: _238  and  _239
REMARK   94  A    between atoms: _239  and  _240
REMARK   95  A    between atoms: _242  and  _244
REMARK   96  A    between atoms: _244  and  _245
REMARK   97  A    between atoms: _244  and  _247
REMARK   98  A    between atoms: _250  and  _252
REMARK   99  A    between atoms: _252  and  _253
REMARK  100  A    between atoms: _252  and  _255
REMARK  101  A    between atoms: _257  and  _259
REMARK  102  A    between atoms: _259  and  _260
REMARK  103  A    between atoms: _263  and  _265
REMARK  104  A    between atoms: _265  and  _266
REMARK  105  A    between atoms: _265  and  _268
REMARK  106  A    between atoms: _268  and  _269
REMARK  107  A    between atoms: _274  and  _275
REMARK  108  A    between atoms: _278  and  _279
REMARK  109  A    between atoms: _284  and  _286
REMARK  110  A    between atoms: _286  and  _287
REMARK  111  A    between atoms: _286  and  _289
REMARK  112  A    between atoms: _289  and  _290
REMARK  113  A    between atoms: _290  and  _291
REMARK  114  A    between atoms: _293  and  _295
REMARK  115  A    between atoms: _295  and  _296
REMARK  116  A    between atoms: _299  and  _301
REMARK  117  A    between atoms: _301  and  _302
REMARK  118  A    between atoms: _301  and  _304
REMARK  119  A    between atoms: _304  and  _305
REMARK  120  A    between atoms: _308  and  _310
REMARK  121  A    between atoms: _310  and  _311
REMARK  122  A    between atoms: _313  and  _315
REMARK  123  A    between atoms: _315  and  _316
REMARK  124  A    between atoms: _315  and  _318
REMARK  125  A    between atoms: _318  and  _319
REMARK  126  A    between atoms: _324  and  _326
REMARK  127  A    between atoms: _326  and  _327
REMARK  128  A    between atoms: _326  and  _329
REMARK  129  A    between atoms: _329  and  _330
REMARK  130  A    between atoms: _333  and  _335
REMARK  131  A    between atoms: _335  and  _336
REMARK  132  A    between atoms: _335  and  _338
REMARK  133  A    between atoms: _338  and  _339
REMARK  134  A    between atoms: _344  and  _345
REMARK  135  A    between atoms: _347  and  _349
REMARK  136  A    between atoms: _349  and  _350
REMARK  137  A    between atoms: _349  and  _352
REMARK  138  A    between atoms: _352  and  _353
REMARK  139  A    between atoms: _356  and  _358
REMARK  140  A    between atoms: _358  and  _359
REMARK  141  A    between atoms: _358  and  _361
REMARK  142  A    between atoms: _361  and  _362
REMARK  143  A    between atoms: _367  and  _368
REMARK  144  A    between atoms: _371  and  _372
REMARK  145  A    between atoms: _377  and  _379
REMARK  146  A    between atoms: _379  and  _380
REMARK  147  A    between atoms: _379  and  _382
REMARK  148  A    between atoms: _382  and  _383
REMARK  149  A    between atoms: _388  and  _389
REMARK  150  A    between atoms: _391  and  _393
REMARK  151  A    between atoms: _393  and  _394
REMARK  152  A    between atoms: _393  and  _396
REMARK  153  A    between atoms: _396  and  _397
REMARK  154  A    between atoms: _397  and  _398
REMARK  155  A    between atoms: _400  and  _402
REMARK  156  A    between atoms: _402  and  _403
REMARK  157  A    between atoms: _402  and  _405
REMARK  158  A    between atoms: _405  and  _406
REMARK  159  A    between atoms: _411  and  _412
REMARK  160  A    between atoms: _414  and  _416
REMARK  161  A    between atoms: _416  and  _417
REMARK  162  A    between atoms: _416  and  _419
REMARK  163  A    between atoms: _419  and  _420
REMARK  164  A    between atoms: _423  and  _425
REMARK  165  A    between atoms: _425  and  _426
REMARK  166  A    between atoms: _429  and  _431
REMARK  167  A    between atoms: _431  and  _432
REMARK  168  A    between atoms: _434  and  _436
REMARK  169  A    between atoms: _436  and  _437
REMARK  170  A    between atoms: _436  and  _439
REMARK  171  A    between atoms: _439  and  _440
REMARK  172  A    between atoms: _445  and  _446
REMARK  173  A    between atoms: _448  and  _450
REMARK  174  A    between atoms: _450  and  _451
REMARK  175  A    between atoms: _450  and  _453
REMARK  176  A    between atoms: _453  and  _454
REMARK  177  A    between atoms: _459  and  _461
REMARK  178  A    between atoms: _461  and  _462
REMARK  179  A    between atoms: _461  and  _464
REMARK  180  A    between atoms: _466  and  _468
REMARK  181  A    between atoms: _468  and  _469
REMARK  182  A    between atoms: _468  and  _471
REMARK  183  A    between atoms: _471  and  _472
REMARK  184  A    between atoms: _472  and  _473
REMARK  185  A    between atoms: _473  and  _474
REMARK  186  A    between atoms: _483  and  _485
REMARK  187  A    between atoms: _485  and  _486
REMARK  188  A    between atoms: _489  and  _491
REMARK  189  A    between atoms: _491  and  _492
REMARK  190  A    between atoms: _495  and  _497
REMARK  191  A    between atoms: _497  and  _498
REMARK  192  A    between atoms: _497  and  _500
REMARK  193  A    between atoms: _500  and  _501
REMARK  194  A    between atoms: _511  and  _513
REMARK  195  A    between atoms: _513  and  _514
REMARK  196  A    between atoms: _513  and  _516
REMARK  197  A    between atoms: _516  and  _517
REMARK  198  A    between atoms: _520  and  _522
REMARK  199  A    between atoms: _522  and  _523
REMARK  200  A    between atoms: _522  and  _525
REMARK  201  A    between atoms: _525  and  _526
REMARK  202  A    between atoms: _526  and  _527
REMARK  203  A    between atoms: _530  and  _532
REMARK  204  A    between atoms: _532  and  _533
REMARK  205  A    between atoms: _532  and  _535
REMARK  206  A    between atoms: _535  and  _536
REMARK  207  A    between atoms: _539  and  _541
REMARK  208  A    between atoms: _541  and  _542
REMARK  209  A    between atoms: _541  and  _544
REMARK  210  A    between atoms: _544  and  _545
REMARK  211  A    between atoms: _545  and  _546
REMARK  212  A    between atoms: _546  and  _547
REMARK  213  A    between atoms: _547  and  _548
REMARK  214  A    between atoms: _552  and  _554
REMARK  215  A    between atoms: _554  and  _555
REMARK  216  A    between atoms: _554  and  _557
REMARK  217  A    between atoms: _557  and  _558
REMARK  218  A    between atoms: _558  and  _559
REMARK  219  A    between atoms: _562  and  _564
REMARK  220  A    between atoms: _564  and  _565
REMARK  221  A    between atoms: _564  and  _567
REMARK  222  A    between atoms: _567  and  _568
REMARK  223  A    between atoms: _574  and  _576
REMARK  224  A    between atoms: _576  and  _577
REMARK  225  A    between atoms: _576  and  _579
REMARK  226  A    between atoms: _579  and  _580
REMARK  227  A    between atoms: _586  and  _588
REMARK  228  A    between atoms: _588  and  _589
REMARK  229  A    between atoms: _588  and  _591
REMARK  230  A    between atoms: _591  and  _592
REMARK  231  A    between atoms: _592  and  _593
REMARK  232  A    between atoms: _596  and  _598
REMARK  233  A    between atoms: _598  and  _599
REMARK  234  A    between atoms: _598  and  _601
REMARK  235  A    between atoms: _604  and  _606
REMARK  236  A    between atoms: _606  and  _607
REMARK  237  A    between atoms: _610  and  _612
REMARK  238  A    between atoms: _612  and  _613
REMARK  239  A    between atoms: _612  and  _615
REMARK  240  A    between atoms: _615  and  _616
REMARK  241  A    between atoms: _619  and  _621
REMARK  242  A    between atoms: _621  and  _622
REMARK  243  A    between atoms: _621  and  _624
REMARK  244  A    between atoms: _627  and  _629
REMARK  245  A    between atoms: _629  and  _630
REMARK  246  A    between atoms: _629  and  _632
REMARK  247  A    between atoms: _632  and  _633
REMARK                            x       y       z     vdW  Elec       q    Type
REMARK                         _______ _______ _______ _____ _____    ______ ____
ROOT
ATOM      1  CA  SER A   2      23.724   6.932   7.360  0.00  0.00    +0.178 C 
ENDROOT
BRANCH   1   3
ATOM      2  C   ASP A   1      23.043   6.556   5.054  0.00  0.00    +0.239 C 
ATOM      3  N   SER A   2      23.228   7.416   6.069  0.00  0.00    -0.295 N 
ATOM      4  H   SER A   2      23.019   8.426   5.938  0.00  0.00    +0.150 HD
ATOM      5  O   ASP A   1      23.170   5.305   5.191  0.00  0.00    -0.274 OA
BRANCH   2   6
ATOM      6  CA  ASP A   1      22.748   7.162   3.706  0.00  0.00    +0.156 C 
BRANCH   6   7
ATOM      7  N   ASP A   1      22.707   6.173   2.651  0.00  0.00    -0.238 NA
ATOM      8  H   ASP A   1      21.780   5.840   2.316  0.00  0.00    +0.142 HD
ENDBRANCH   6   7
BRANCH   6   9
ATOM      9  CB  ASP A   1      21.498   8.055   3.676  0.00  0.00    +0.140 C 
BRANCH   9  10
ATOM     10  CG  ASP A   1      20.206   7.326   3.943  0.00  0.00    +0.367 C 
ATOM     11  OD2 ASP A   1      20.177   6.257   4.557  0.00  0.00    -0.246 OA
ATOM     12  OD1 ASP A   1      19.132   7.891   3.510  0.00  0.00    -0.246 OA
ENDBRANCH   9  10
ENDBRANCH   6   9
ENDBRANCH   2   6
ENDBRANCH   1   3
BRANCH   1  13
ATOM     13  C   SER A   2      22.923   5.779   7.969  0.00  0.00    +0.243 C 
ATOM     14  O   SER A   2      23.435   4.698   8.279  0.00  0.00    -0.273 OA
ATOM     15  N   SER A   3      21.638   6.034   8.155  0.00  0.00    -0.295 N 
ATOM     16  H   SER A   3      21.234   6.944   7.856  0.00  0.00    +0.150 HD
BRANCH  15  17
ATOM     17  CA  SER A   3      20.816   5.051   8.768  0.00  0.00    +0.178 C 
BRANCH  17  18
ATOM     18  C   SER A   3      20.552   3.915   7.810  0.00  0.00    +0.243 C 
ATOM     19  O   SER A   3      20.264   2.806   8.242  0.00  0.00    -0.273 OA
ATOM     20  N   GLY A   4      20.663   4.146   6.487  0.00  0.00    -0.296 N 
ATOM     21  H   GLY A   4      20.829   5.119   6.159  0.00  0.00    +0.150 HD
BRANCH  20  22
ATOM     22  CA  GLY A   4      20.558   3.075   5.498  0.00  0.00    +0.163 C 
BRANCH  22  23
ATOM     23  C   GLY A   4      21.669   2.043   5.690  0.00  0.00    +0.229 C 
ATOM     24  O   GLY A   4      21.420   0.863   5.506  0.00  0.00    -0.286 OA
ENDBRANCH  22  23
ENDBRANCH  20  22
ENDBRANCH  17  18
BRANCH  17  25
ATOM     25  CB  SER A   3      19.498   5.653   9.315  0.00  0.00    +0.166 C 
BRANCH  25  26
ATOM     26  OG  SER A   3      18.709   6.217   8.335  0.00  0.00    -0.380 OA
ATOM     27  H   SER A   3      18.468   5.526   7.668  0.00  0.00    +0.211 HD
ENDBRANCH  25  26
ENDBRANCH  17  25
ENDBRANCH  15  17
ENDBRANCH   1  13
BRANCH   1  28
ATOM     28  CB  SER A   2      23.818   8.062   8.362  0.00  0.00    +0.166 C 
BRANCH  28  29
ATOM     29  OG  SER A   2      24.055   7.523   9.661  0.00  0.00    -0.380 OA
ATOM     30  H   SER A   2      24.117   8.262  10.317  0.00  0.00    +0.211 HD
ENDBRANCH  28  29
ENDBRANCH   1  28
TORSDOF 14
REMARK  Name = ../refined-set-2016/4x5y/4x5y_pocket.pdb
REMARK  247 active torsions:
REMARK  status: ('A' for Active; 'I' for Inactive)
REMARK    1  A    between atoms: _1  and  _3
REMARK    2  A    between atoms: _3  and  _4
REMARK    3  A    between atoms: _3  and  _6
REMARK    4  A    between atoms: _6  and  _7
REMARK    5  A    between atoms: _10  and  _12
REMARK    6  A    between atoms: _12  and  _13
REMARK    7  A    between atoms: _12  and  _15
REMARK    8  A    between atoms: _15  and  _16
REMARK    9  A    between atoms: _18  and  _20
REMARK   10  A    between atoms: _20  and  _21
REMARK   11  A    between atoms: _20  and  _23
REMARK   12  A    between atoms: _23  and  _24
REMARK   13  A    between atoms: _26  and  _28
REMARK   14  A    between atoms: _28  and  _29
REMARK   15  A    between atoms: _31  and  _33
REMARK   16  A    between atoms: _33  and  _34
REMARK   17  A    between atoms: _37  and  _39
REMARK   18  A    between atoms: _39  and  _40
REMARK   19  A    between atoms: _39  and  _42
REMARK   20  A    between atoms: _42  and  _43
REMARK   21  A    between atoms: _49  and  _51
REMARK   22  A    between atoms: _51  and  _52
REMARK   23  A    between atoms: _51  and  _54
REMARK   24  A    between atoms: _54  and  _55
REMARK   25  A    between atoms: _58  and  _60
REMARK   26  A    between atoms: _60  and  _61
REMARK   27  A    between atoms: _64  and  _66
REMARK   28  A    between atoms: _66  and  _67
REMARK   29  A    between atoms: _66  and  _69
REMARK   30  A    between atoms: _69  and  _70
REMARK   31  A    between atoms: _73  and  _75
REMARK   32  A    between atoms: _75  and  _76
REMARK   33  A    between atoms: _75  and  _78
REMARK   34  A    between atoms: _78  and  _79
REMARK   35  A    between atoms: _81  and  _83
REMARK   36  A    between atoms: _83  and  _84
REMARK   37  A    between atoms: _83  and  _86
REMARK   38  A    between atoms: _86  and  _87
REMARK   39  A    between atoms: _87  and  _88
REMARK   40  A    between atoms: _91  and  _93
REMARK   41  A    between atoms: _93  and  _94
REMARK   42  A    between atoms: _93  and  _96
REMARK   43  A    between atoms: _96  and  _97
REMARK   44  A    between atoms: _100  and  _102
REMARK   45  A    between atoms: _102  and  _103
REMARK   46  A    between atoms: _102  and  _105
REMARK   47  A    between atoms: _105  and  _106
REMARK   48  A    between atoms: _111  and  _113
REMARK   49  A    between atoms: _113  and  _114
REMARK   50  A    between atoms: _117  and  _119
REMARK   51  A    between atoms: _119  and  _120
REMARK   52  A    between atoms: _119  and  _122
REMARK   53  A    between atoms: _122  and  _123
REMARK   54  A    between atoms: _133  and  _135
REMARK   55  A    between atoms: _135  and  _136
REMARK   56  A    between atoms: _135  and  _138
REMARK   57  A    between atoms: _138  and  _139
REMARK   58  A    between atoms: _142  and  _144
REMARK   59  A    between atoms: _144  and  _145
REMARK   60  A    between atoms: _144  and  _147
REMARK   61  A    between atoms: _147  and  _148
REMARK   62  A    between atoms: _158  and  _160
REMARK   63  A    between atoms: _160  and  _161
REMARK   64  A    between atoms: _160  and  _163
REMARK   65  A    between atoms: _163  and  _164
REMARK   66  A    between atoms: _169  and  _171
REMARK   67  A    between atoms: _171  and  _172
REMARK   68  A    between atoms: _174  and  _176
REMARK   69  A    between atoms: _176  and  _177
REMARK   70  A    between atoms: _176  and  _179
REMARK   71  A    between atoms: _179  and  _180
REMARK   72  A    between atoms: _190  and  _192
REMARK   73  A    between atoms: _192  and  _193
REMARK   74  A    between atoms: _192  and  _195
REMARK   75  A    between atoms: _195  and  _196
REMARK   76  A    between atoms: _199  and  _201
REMARK   77  A    between atoms: _201  and  _202
REMARK   78  A    between atoms: _201  and  _204
REMARK   79  A    between atoms: _204  and  _205
REMARK   80  A    between atoms: _205  and  _206
REMARK   81  A    between atoms: _208  and  _210
REMARK   82  A    between atoms: _210  and  _211
REMARK   83  A    between atoms: _210  and  _213
REMARK   84  A    between atoms: _215  and  _217
REMARK   85  A    between atoms: _217  and  _218
REMARK   86  A    between atoms: _221  and  _223
REMARK   87  A    between atoms: _223  and  _224
REMARK   88  A    between atoms: _223  and  _226
REMARK   89  A    between atoms: _226  and  _227
REMARK   90  A    between atoms: _233  and  _235
REMARK   91  A    between atoms: _235  and  _236
REMARK   92  A    between atoms: _235  and  _238
REMARK   93  A    between atoms: _238  and  _239
REMARK   94  A    between atoms: _239  and  _240
REMARK   95  A    between atoms: _242  and  _244
REMARK   96  A    between atoms: _244  and  _245
REMARK   97  A    between atoms: _244  and  _247
REMARK   98  A    between atoms: _250  and  _252
REMARK   99  A    between atoms: _252  and  _253
REMARK  100  A    between atoms: _252  and  _255
REMARK  101  A    between atoms: _257  and  _259
REMARK  102  A    between atoms: _259  and  _260
REMARK  103  A    between atoms: _263  and  _265
REMARK  104  A    between atoms: _265  and  _266
REMARK  105  A    between atoms: _265  and  _268
REMARK  106  A    between atoms: _268  and  _269
REMARK  107  A    between atoms: _274  and  _275
REMARK  108  A    between atoms: _278  and  _279
REMARK  109  A    between atoms: _284  and  _286
REMARK  110  A    between atoms: _286  and  _287
REMARK  111  A    between atoms: _286  and  _289
REMARK  112  A    between atoms: _289  and  _290
REMARK  113  A    between atoms: _290  and  _291
REMARK  114  A    between atoms: _293  and  _295
REMARK  115  A    between atoms: _295  and  _296
REMARK  116  A    between atoms: _299  and  _301
REMARK  117  A    between atoms: _301  and  _302
REMARK  118  A    between atoms: _301  and  _304
REMARK  119  A    between atoms: _304  and  _305
REMARK  120  A    between atoms: _308  and  _310
REMARK  121  A    between atoms: _310  and  _311
REMARK  122  A    between atoms: _313  and  _315
REMARK  123  A    between atoms: _315  and  _316
REMARK  124  A    between atoms: _315  and  _318
REMARK  125  A    between atoms: _318  and  _319
REMARK  126  A    between atoms: _324  and  _326
REMARK  127  A    between atoms: _326  and  _327
REMARK  128  A    between atoms: _326  and  _329
REMARK  129  A    between atoms: _329  and  _330
REMARK  130  A    between atoms: _333  and  _335
REMARK  131  A    between atoms: _335  and  _336
REMARK  132  A    between atoms: _335  and  _338
REMARK  133  A    between atoms: _338  and  _339
REMARK  134  A    between atoms: _344  and  _345
REMARK  135  A    between atoms: _347  and  _349
REMARK  136  A    between atoms: _349  and  _350
REMARK  137  A    between atoms: _349  and  _352
REMARK  138  A    between atoms: _352  and  _353
REMARK  139  A    between atoms: _356  and  _358
REMARK  140  A    between atoms: _358  and  _359
REMARK  141  A    between atoms: _358  and  _361
REMARK  142  A    between atoms: _361  and  _362
REMARK  143  A    between atoms: _367  and  _368
REMARK  144  A    between atoms: _371  and  _372
REMARK  145  A    between atoms: _377  and  _379
REMARK  146  A    between atoms: _379  and  _380
REMARK  147  A    between atoms: _379  and  _382
REMARK  148  A    between atoms: _382  and  _383
REMARK  149  A    between atoms: _388  and  _389
REMARK  150  A    between atoms: _391  and  _393
REMARK  151  A    between atoms: _393  and  _394
REMARK  152  A    between atoms: _393  and  _396
REMARK  153  A    between atoms: _396  and  _397
REMARK  154  A    between atoms: _397  and  _398
REMARK  155  A    between atoms: _400  and  _402
REMARK  156  A    between atoms: _402  and  _403
REMARK  157  A    between atoms: _402  and  _405
REMARK  158  A    between atoms: _405  and  _406
REMARK  159  A    between atoms: _411  and  _412
REMARK  160  A    between atoms: _414  and  _416
REMARK  161  A    between atoms: _416  and  _417
REMARK  162  A    between atoms: _416  and  _419
REMARK  163  A    between atoms: _419  and  _420
REMARK  164  A    between atoms: _423  and  _425
REMARK  165  A    between atoms: _425  and  _426
REMARK  166  A    between atoms: _429  and  _431
REMARK  167  A    between atoms: _431  and  _432
REMARK  168  A    between atoms: _434  and  _436
REMARK  169  A    between atoms: _436  and  _437
REMARK  170  A    between atoms: _436  and  _439
REMARK  171  A    between atoms: _439  and  _440
REMARK  172  A    between atoms: _445  and  _446
REMARK  173  A    between atoms: _448  and  _450
REMARK  174  A    between atoms: _450  and  _451
REMARK  175  A    between atoms: _450  and  _453
REMARK  176  A    between atoms: _453  and  _454
REMARK  177  A    between atoms: _459  and  _461
REMARK  178  A    between atoms: _461  and  _462
REMARK  179  A    between atoms: _461  and  _464
REMARK  180  A    between atoms: _466  and  _468
REMARK  181  A    between atoms: _468  and  _469
REMARK  182  A    between atoms: _468  and  _471
REMARK  183  A    between atoms: _471  and  _472
REMARK  184  A    between atoms: _472  and  _473
REMARK  185  A    between atoms: _473  and  _474
REMARK  186  A    between atoms: _483  and  _485
REMARK  187  A    between atoms: _485  and  _486
REMARK  188  A    between atoms: _489  and  _491
REMARK  189  A    between atoms: _491  and  _492
REMARK  190  A    between atoms: _495  and  _497
REMARK  191  A    between atoms: _497  and  _498
REMARK  192  A    between atoms: _497  and  _500
REMARK  193  A    between atoms: _500  and  _501
REMARK  194  A    between atoms: _511  and  _513
REMARK  195  A    between atoms: _513  and  _514
REMARK  196  A    between atoms: _513  and  _516
REMARK  197  A    between atoms: _516  and  _517
REMARK  198  A    between atoms: _520  and  _522
REMARK  199  A    between atoms: _522  and  _523
REMARK  200  A    between atoms: _522  and  _525
REMARK  201  A    between atoms: _525  and  _526
REMARK  202  A    between atoms: _526  and  _527
REMARK  203  A    between atoms: _530  and  _532
REMARK  204  A    between atoms: _532  and  _533
REMARK  205  A    between atoms: _532  and  _535
REMARK  206  A    between atoms: _535  and  _536
REMARK  207  A    between atoms: _539  and  _541
REMARK  208  A    between atoms: _541  and  _542
REMARK  209  A    between atoms: _541  and  _544
REMARK  210  A    between atoms: _544  and  _545
REMARK  211  A    between atoms: _545  and  _546
REMARK  212  A    between atoms: _546  and  _547
REMARK  213  A    between atoms: _547  and  _548
REMARK  214  A    between atoms: _552  and  _554
REMARK  215  A    between atoms: _554  and  _555
REMARK  216  A    between atoms: _554  and  _557
REMARK  217  A    between atoms: _557  and  _558
REMARK  218  A    between atoms: _558  and  _559
REMARK  219  A    between atoms: _562  and  _564
REMARK  220  A    between atoms: _564  and  _565
REMARK  221  A    between atoms: _564  and  _567
REMARK  222  A    between atoms: _567  and  _568
REMARK  223  A    between atoms: _574  and  _576
REMARK  224  A    between atoms: _576  and  _577
REMARK  225  A    between atoms: _576  and  _579
REMARK  226  A    between atoms: _579  and  _580
REMARK  227  A    between atoms: _586  and  _588
REMARK  228  A    between atoms: _588  and  _589
REMARK  229  A    between atoms: _588  and  _591
REMARK  230  A    between atoms: _591  and  _592
REMARK  231  A    between atoms: _592  and  _593
REMARK  232  A    between atoms: _596  and  _598
REMARK  233  A    between atoms: _598  and  _599
REMARK  234  A    between atoms: _598  and  _601
REMARK  235  A    between atoms: _604  and  _606
REMARK  236  A    between atoms: _606  and  _607
REMARK  237  A    between atoms: _610  and  _612
REMARK  238  A    between atoms: _612  and  _613
REMARK  239  A    between atoms: _612  and  _615
REMARK  240  A    between atoms: _615  and  _616
REMARK  241  A    between atoms: _619  and  _621
REMARK  242  A    between atoms: _621  and  _622
REMARK  243  A    between atoms: _621  and  _624
REMARK  244  A    between atoms: _627  and  _629
REMARK  245  A    between atoms: _629  and  _630
REMARK  246  A    between atoms: _629  and  _632
REMARK  247  A    between atoms: _632  and  _633
REMARK                            x       y       z     vdW  Elec       q    Type
REMARK                         _______ _______ _______ _____ _____    ______ ____
ROOT
ATOM      1  CA  PHE A   2      19.442  -1.014   8.185  0.00  0.00    +0.141 C 
ENDROOT
BRANCH   1   4
ATOM      2  C   ALA A   1      21.472  -0.548   9.410  0.00  0.00    +0.238 C 
ATOM      3  O   ALA A   1      21.537  -1.714   9.809  0.00  0.00    -0.274 OA
ATOM      4  N   PHE A   2      20.483  -0.106   8.629  0.00  0.00    -0.298 N 
ATOM      5  H   PHE A   2      20.459   0.892   8.338  0.00  0.00    +0.150 HD
BRANCH   2   6
ATOM      6  CA  ALA A   1      22.545   0.447   9.764  0.00  0.00    +0.145 C 
ATOM      7  CB  ALA A   1      22.075   1.370  10.881  0.00  0.00    +0.028 C 
BRANCH   6   8
ATOM      8  N   ALA A   1      23.033   1.218   8.639  0.00  0.00    -0.238 NA
ATOM      9  H   ALA A   1      23.013   2.257   8.679  0.00  0.00    +0.142 HD
ENDBRANCH   6   8
ENDBRANCH   2   6
ENDBRANCH   1   4
BRANCH   1  10
ATOM     10  C   PHE A   2      19.982  -2.162   7.354  0.00  0.00    +0.227 C 
ATOM     11  O   PHE A   2      19.600  -3.319   7.544  0.00  0.00    -0.286 OA
ENDBRANCH   1  10
BRANCH   1  12
ATOM     12  CB  PHE A   2      18.364  -0.242   7.399  0.00  0.00    +0.054 C 
BRANCH  12  13
ATOM     13  CG  PHE A   2      17.294  -1.140   6.876  0.00  0.00    -0.020 A 
ATOM     14  CD2 PHE A   2      16.207  -1.474   7.650  0.00  0.00    -0.004 A 
ATOM     15  CE2 PHE A   2      15.218  -2.347   7.156  0.00  0.00    -0.000 A 
ATOM     16  CZ  PHE A   2      15.402  -2.899   5.891  0.00  0.00    -0.000 A 
ATOM     17  CE1 PHE A   2      16.467  -2.552   5.127  0.00  0.00    -0.000 A 
ATOM     18  CD1 PHE A   2      17.417  -1.703   5.610  0.00  0.00    -0.004 A 
ENDBRANCH  12  13
ENDBRANCH   1  12
TORSDOF 6
REMARK  Name = ../refined-set-2016/4x5y/4x5y_pocket.pdb
REMARK  247 active torsions:
REMARK  status: ('A' for Active; 'I' for Inactive)
REMARK    1  A    between atoms: _1  and  _3
REMARK    2  A    between atoms: _3  and  _4
REMARK    3  A    between atoms: _3  and  _6
REMARK    4  A    between atoms: _6  and  _7
REMARK    5  A    between atoms: _10  and  _12
REMARK    6  A    between atoms: _12  and  _13
REMARK    7  A    between atoms: _12  and  _15
REMARK    8  A    between atoms: _15  and  _16
REMARK    9  A    between atoms: _18  and  _20
REMARK   10  A    between atoms: _20  and  _21
REMARK   11  A    between atoms: _20  and  _23
REMARK   12  A    between atoms: _23  and  _24
REMARK   13  A    between atoms: _26  and  _28
REMARK   14  A    between atoms: _28  and  _29
REMARK   15  A    between atoms: _31  and  _33
REMARK   16  A    between atoms: _33  and  _34
REMARK   17  A    between atoms: _37  and  _39
REMARK   18  A    between atoms: _39  and  _40
REMARK   19  A    between atoms: _39  and  _42
REMARK   20  A    between atoms: _42  and  _43
REMARK   21  A    between atoms: _49  and  _51
REMARK   22  A    between atoms: _51  and  _52
REMARK   23  A    between atoms: _51  and  _54
REMARK   24  A    between atoms: _54  and  _55
REMARK   25  A    between atoms: _58  and  _60
REMARK   26  A    between atoms: _60  and  _61
REMARK   27  A    between atoms: _64  and  _66
REMARK   28  A    between atoms: _66  and  _67
REMARK   29  A    between atoms: _66  and  _69
REMARK   30  A    between atoms: _69  and  _70
REMARK   31  A    between atoms: _73  and  _75
REMARK   32  A    between atoms: _75  and  _76
REMARK   33  A    between atoms: _75  and  _78
REMARK   34  A    between atoms: _78  and  _79
REMARK   35  A    between atoms: _81  and  _83
REMARK   36  A    between atoms: _83  and  _84
REMARK   37  A    between atoms: _83  and  _86
REMARK   38  A    between atoms: _86  and  _87
REMARK   39  A    between atoms: _87  and  _88
REMARK   40  A    between atoms: _91  and  _93
REMARK   41  A    between atoms: _93  and  _94
REMARK   42  A    between atoms: _93  and  _96
REMARK   43  A    between atoms: _96  and  _97
REMARK   44  A    between atoms: _100  and  _102
REMARK   45  A    between atoms: _102  and  _103
REMARK   46  A    between atoms: _102  and  _105
REMARK   47  A    between atoms: _105  and  _106
REMARK   48  A    between atoms: _111  and  _113
REMARK   49  A    between atoms: _113  and  _114
REMARK   50  A    between atoms: _117  and  _119
REMARK   51  A    between atoms: _119  and  _120
REMARK   52  A    between atoms: _119  and  _122
REMARK   53  A    between atoms: _122  and  _123
REMARK   54  A    between atoms: _133  and  _135
REMARK   55  A    between atoms: _135  and  _136
REMARK   56  A    between atoms: _135  and  _138
REMARK   57  A    between atoms: _138  and  _139
REMARK   58  A    between atoms: _142  and  _144
REMARK   59  A    between atoms: _144  and  _145
REMARK   60  A    between atoms: _144  and  _147
REMARK   61  A    between atoms: _147  and  _148
REMARK   62  A    between atoms: _158  and  _160
REMARK   63  A    between atoms: _160  and  _161
REMARK   64  A    between atoms: _160  and  _163
REMARK   65  A    between atoms: _163  and  _164
REMARK   66  A    between atoms: _169  and  _171
REMARK   67  A    between atoms: _171  and  _172
REMARK   68  A    between atoms: _174  and  _176
REMARK   69  A    between atoms: _176  and  _177
REMARK   70  A    between atoms: _176  and  _179
REMARK   71  A    between atoms: _179  and  _180
REMARK   72  A    between atoms: _190  and  _192
REMARK   73  A    between atoms: _192  and  _193
REMARK   74  A    between atoms: _192  and  _195
REMARK   75  A    between atoms: _195  and  _196
REMARK   76  A    between atoms: _199  and  _201
REMARK   77  A    between atoms: _201  and  _202
REMARK   78  A    between atoms: _201  and  _204
REMARK   79  A    between atoms: _204  and  _205
REMARK   80  A    between atoms: _205  and  _206
REMARK   81  A    between atoms: _208  and  _210
REMARK   82  A    between atoms: _210  and  _211
REMARK   83  A    between atoms: _210  and  _213
REMARK   84  A    between atoms: _215  and  _217
REMARK   85  A    between atoms: _217  and  _218
REMARK   86  A    between atoms: _221  and  _223
REMARK   87  A    between atoms: _223  and  _224
REMARK   88  A    between atoms: _223  and  _226
REMARK   89  A    between atoms: _226  and  _227
REMARK   90  A    between atoms: _233  and  _235
REMARK   91  A    between atoms: _235  and  _236
REMARK   92  A    between atoms: _235  and  _238
REMARK   93  A    between atoms: _238  and  _239
REMARK   94  A    between atoms: _239  and  _240
REMARK   95  A    between atoms: _242  and  _244
REMARK   96  A    between atoms: _244  and  _245
REMARK   97  A    between atoms: _244  and  _247
REMARK   98  A    between atoms: _250  and  _252
REMARK   99  A    between atoms: _252  and  _253
REMARK  100  A    between atoms: _252  and  _255
REMARK  101  A    between atoms: _257  and  _259
REMARK  102  A    between atoms: _259  and  _260
REMARK  103  A    between atoms: _263  and  _265
REMARK  104  A    between atoms: _265  and  _266
REMARK  105  A    between atoms: _265  and  _268
REMARK  106  A    between atoms: _268  and  _269
REMARK  107  A    between atoms: _274  and  _275
REMARK  108  A    between atoms: _278  and  _279
REMARK  109  A    between atoms: _284  and  _286
REMARK  110  A    between atoms: _286  and  _287
REMARK  111  A    between atoms: _286  and  _289
REMARK  112  A    between atoms: _289  and  _290
REMARK  113  A    between atoms: _290  and  _291
REMARK  114  A    between atoms: _293  and  _295
REMARK  115  A    between atoms: _295  and  _296
REMARK  116  A    between atoms: _299  and  _301
REMARK  117  A    between atoms: _301  and  _302
REMARK  118  A    between atoms: _301  and  _304
REMARK  119  A    between atoms: _304  and  _305
REMARK  120  A    between atoms: _308  and  _310
REMARK  121  A    between atoms: _310  and  _311
REMARK  122  A    between atoms: _313  and  _315
REMARK  123  A    between atoms: _315  and  _316
REMARK  124  A    between atoms: _315  and  _318
REMARK  125  A    between atoms: _318  and  _319
REMARK  126  A    between atoms: _324  and  _326
REMARK  127  A    between atoms: _326  and  _327
REMARK  128  A    between atoms: _326  and  _329
REMARK  129  A    between atoms: _329  and  _330
REMARK  130  A    between atoms: _333  and  _335
REMARK  131  A    between atoms: _335  and  _336
REMARK  132  A    between atoms: _335  and  _338
REMARK  133  A    between atoms: _338  and  _339
REMARK  134  A    between atoms: _344  and  _345
REMARK  135  A    between atoms: _347  and  _349
REMARK  136  A    between atoms: _349  and  _350
REMARK  137  A    between atoms: _349  and  _352
REMARK  138  A    between atoms: _352  and  _353
REMARK  139  A    between atoms: _356  and  _358
REMARK  140  A    between atoms: _358  and  _359
REMARK  141  A    between atoms: _358  and  _361
REMARK  142  A    between atoms: _361  and  _362
REMARK  143  A    between atoms: _367  and  _368
REMARK  144  A    between atoms: _371  and  _372
REMARK  145  A    between atoms: _377  and  _379
REMARK  146  A    between atoms: _379  and  _380
REMARK  147  A    between atoms: _379  and  _382
REMARK  148  A    between atoms: _382  and  _383
REMARK  149  A    between atoms: _388  and  _389
REMARK  150  A    between atoms: _391  and  _393
REMARK  151  A    between atoms: _393  and  _394
REMARK  152  A    between atoms: _393  and  _396
REMARK  153  A    between atoms: _396  and  _397
REMARK  154  A    between atoms: _397  and  _398
REMARK  155  A    between atoms: _400  and  _402
REMARK  156  A    between atoms: _402  and  _403
REMARK  157  A    between atoms: _402  and  _405
REMARK  158  A    between atoms: _405  and  _406
REMARK  159  A    between atoms: _411  and  _412
REMARK  160  A    between atoms: _414  and  _416
REMARK  161  A    between atoms: _416  and  _417
REMARK  162  A    between atoms: _416  and  _419
REMARK  163  A    between atoms: _419  and  _420
REMARK  164  A    between atoms: _423  and  _425
REMARK  165  A    between atoms: _425  and  _426
REMARK  166  A    between atoms: _429  and  _431
REMARK  167  A    between atoms: _431  and  _432
REMARK  168  A    between atoms: _434  and  _436
REMARK  169  A    between atoms: _436  and  _437
REMARK  170  A    between atoms: _436  and  _439
REMARK  171  A    between atoms: _439  and  _440
REMARK  172  A    between atoms: _445  and  _446
REMARK  173  A    between atoms: _448  and  _450
REMARK  174  A    between atoms: _450  and  _451
REMARK  175  A    between atoms: _450  and  _453
REMARK  176  A    between atoms: _453  and  _454
REMARK  177  A    between atoms: _459  and  _461
REMARK  178  A    between atoms: _461  and  _462
REMARK  179  A    between atoms: _461  and  _464
REMARK  180  A    between atoms: _466  and  _468
REMARK  181  A    between atoms: _468  and  _469
REMARK  182  A    between atoms: _468  and  _471
REMARK  183  A    between atoms: _471  and  _472
REMARK  184  A    between atoms: _472  and  _473
REMARK  185  A    between atoms: _473  and  _474
REMARK  186  A    between atoms: _483  and  _485
REMARK  187  A    between atoms: _485  and  _486
REMARK  188  A    between atoms: _489  and  _491
REMARK  189  A    between atoms: _491  and  _492
REMARK  190  A    between atoms: _495  and  _497
REMARK  191  A    between atoms: _497  and  _498
REMARK  192  A    between atoms: _497  and  _500
REMARK  193  A    between atoms: _500  and  _501
REMARK  194  A    between atoms: _511  and  _513
REMARK  195  A    between atoms: _513  and  _514
REMARK  196  A    between atoms: _513  and  _516
REMARK  197  A    between atoms: _516  and  _517
REMARK  198  A    between atoms: _520  and  _522
REMARK  199  A    between atoms: _522  and  _523
REMARK  200  A    between atoms: _522  and  _525
REMARK  201  A    between atoms: _525  and  _526
REMARK  202  A    between atoms: _526  and  _527
REMARK  203  A    between atoms: _530  and  _532
REMARK  204  A    between atoms: _532  and  _533
REMARK  205  A    between atoms: _532  and  _535
REMARK  206  A    between atoms: _535  and  _536
REMARK  207  A    between atoms: _539  and  _541
REMARK  208  A    between atoms: _541  and  _542
REMARK  209  A    between atoms: _541  and  _544
REMARK  210  A    between atoms: _544  and  _545
REMARK  211  A    between atoms: _545  and  _546
REMARK  212  A    between atoms: _546  and  _547
REMARK  213  A    between atoms: _547  and  _548
REMARK  214  A    between atoms: _552  and  _554
REMARK  215  A    between atoms: _554  and  _555
REMARK  216  A    between atoms: _554  and  _557
REMARK  217  A    between atoms: _557  and  _558
REMARK  218  A    between atoms: _558  and  _559
REMARK  219  A    between atoms: _562  and  _564
REMARK  220  A    between atoms: _564  and  _565
REMARK  221  A    between atoms: _564  and  _567
REMARK  222  A    between atoms: _567  and  _568
REMARK  223  A    between atoms: _574  and  _576
REMARK  224  A    between atoms: _576  and  _577
REMARK  225  A    between atoms: _576  and  _579
REMARK  226  A    between atoms: _579  and  _580
REMARK  227  A    between atoms: _586  and  _588
REMARK  228  A    between atoms: _588  and  _589
REMARK  229  A    between atoms: _588  and  _591
REMARK  230  A    between atoms: _591  and  _592
REMARK  231  A    between atoms: _592  and  _593
REMARK  232  A    between atoms: _596  and  _598
REMARK  233  A    between atoms: _598  and  _599
REMARK  234  A    between atoms: _598  and  _601
REMARK  235  A    between atoms: _604  and  _606
REMARK  236  A    between atoms: _606  and  _607
REMARK  237  A    between atoms: _610  and  _612
REMARK  238  A    between atoms: _612  and  _613
REMARK  239  A    between atoms: _612  and  _615
REMARK  240  A    between atoms: _615  and  _616
REMARK  241  A    between atoms: _619  and  _621
REMARK  242  A    between atoms: _621  and  _622
REMARK  243  A    between atoms: _621  and  _624
REMARK  244  A    between atoms: _627  and  _629
REMARK  245  A    between atoms: _629  and  _630
REMARK  246  A    between atoms: _629  and  _632
REMARK  247  A    between atoms: _632  and  _633
REMARK                            x       y       z     vdW  Elec       q    Type
REMARK                         _______ _______ _______ _____ _____    ______ ____
ROOT
ATOM      1  C   GLU A   5      16.686  11.199  15.979  0.00  0.00    +0.241 C 
ATOM      2  N   ASP A   6      18.008  10.911  16.025  0.00  0.00    -0.297 N 
ATOM      3  H   ASP A   6      18.375  10.338  16.812  0.00  0.00    +0.150 HD
ATOM      4  O   GLU A   5      16.208  11.862  15.075  0.00  0.00    -0.273 OA
ENDROOT
BRANCH   2   5
ATOM      5  CA  ASP A   6      18.930  11.383  15.000  0.00  0.00    +0.160 C 
BRANCH   5   6
ATOM      6  C   ASP A   6      20.068  10.404  14.653  0.00  0.00    +0.241 C 
ATOM      7  N   HIS A   7      19.943   9.171  15.059  0.00  0.00    -0.297 N 
ATOM      8  H   HIS A   7      19.086   8.874  15.567  0.00  0.00    +0.150 HD
ATOM      9  O   ASP A   6      21.025  10.826  14.042  0.00  0.00    -0.273 OA
BRANCH   7  10
ATOM     10  CA  HIS A   7      21.007   8.210  14.799  0.00  0.00    +0.155 C 
BRANCH  10  11
ATOM     11  C   HIS A   7      20.461   6.780  14.823  0.00  0.00    +0.241 C 
ATOM     12  O   HIS A   7      19.380   6.512  15.348  0.00  0.00    -0.273 OA
ATOM     13  N   ALA A   8      21.258   5.859  14.325  0.00  0.00    -0.297 N 
ATOM     14  H   ALA A   8      22.177   6.151  13.935  0.00  0.00    +0.150 HD
BRANCH  13  15
ATOM     15  CA  ALA A   8      20.908   4.466  14.299  0.00  0.00    +0.149 C 
ATOM     16  CB  ALA A   8      20.357   4.093  12.941  0.00  0.00    +0.031 C 
BRANCH  15  17
ATOM     17  C   ALA A   8      22.127   3.611  14.537  0.00  0.00    +0.241 C 
ATOM     18  N   TRP A   9      21.889   2.468  15.159  0.00  0.00    -0.298 N 
ATOM     19  H   TRP A   9      20.916   2.260  15.462  0.00  0.00    +0.150 HD
ATOM     20  O   ALA A   8      23.182   3.962  14.126  0.00  0.00    -0.273 OA
BRANCH  18  21
ATOM     21  CA  TRP A   9      22.937   1.480  15.441  0.00  0.00    +0.141 C 
BRANCH  21  22
ATOM     22  C   TRP A   9      22.261   0.135  15.644  0.00  0.00    +0.227 C 
ATOM     23  O   TRP A   9      21.093   0.050  15.395  0.00  0.00    -0.286 OA
ENDBRANCH  21  22
BRANCH  21  24
ATOM     24  CB  TRP A   9      23.781   1.889  16.656  0.00  0.00    +0.056 C 
BRANCH  24  25
ATOM     25  CG  TRP A   9      23.038   2.042  17.947  0.00  0.00    -0.002 A 
ATOM     26  CD1 TRP A   9      22.924   1.136  18.970  0.00  0.00    +0.068 A 
ATOM     27  NE1 TRP A   9      22.179   1.639  19.987  0.00  0.00    -0.352 N 
ATOM     28  HE1 TRP A   9      21.942   1.124  20.859  0.00  0.00    +0.166 HD
ATOM     29  CE2 TRP A   9      21.796   2.878  19.713  0.00  0.00    +0.056 A 
ATOM     30  CZ2 TRP A   9      21.093   3.760  20.441  0.00  0.00    +0.017 A 
ATOM     31  CH2 TRP A   9      20.861   4.984  19.899  0.00  0.00    +0.001 A 
ATOM     32  CZ3 TRP A   9      21.345   5.338  18.670  0.00  0.00    +0.000 A 
ATOM     33  CE3 TRP A   9      22.093   4.466  17.923  0.00  0.00    +0.001 A 
ATOM     34  CD2 TRP A   9      22.318   3.216  18.420  0.00  0.00    +0.013 A 
ENDBRANCH  24  25
ENDBRANCH  21  24
ENDBRANCH  18  21
ENDBRANCH  15  17
ENDBRANCH  13  15
ENDBRANCH  10  11
BRANCH  10  35
ATOM     35  CB  HIS A   7      22.135   8.454  15.763  0.00  0.00    +0.076 C 
BRANCH  35  36
ATOM     36  CG  HIS A   7      23.406   7.668  15.520  0.00  0.00    +0.082 A 
ATOM     37  CD2 HIS A   7      24.241   7.053  16.387  0.00  0.00    +0.115 A 
ATOM     38  NE2 HIS A   7      25.243   6.462  15.644  0.00  0.00    -0.221 NA
ATOM     39  CE1 HIS A   7      25.070   6.770  14.379  0.00  0.00    +0.199 A 
ATOM     40  ND1 HIS A   7      23.947   7.467  14.258  0.00  0.00    -0.227 NA
ENDBRANCH  35  36
ENDBRANCH  10  35
ENDBRANCH   7  10
ENDBRANCH   5   6
BRANCH   5  41
ATOM     41  CB  ASP A   6      19.543  12.739  15.435  0.00  0.00    +0.143 C 
BRANCH  41  42
ATOM     42  CG  ASP A   6      20.278  13.461  14.334  0.00  0.00    +0.367 C 
ATOM     43  OD2 ASP A   6      21.440  13.900  14.638  0.00  0.00    -0.246 OA
ATOM     44  OD1 ASP A   6      19.718  13.547  13.252  0.00  0.00    -0.246 OA
ENDBRANCH  41  42
ENDBRANCH   5  41
ENDBRANCH   2   5
BRANCH   1  45
ATOM     45  CA  GLU A   5      15.764  10.633  17.050  0.00  0.00    +0.149 C 
BRANCH  45  47
ATOM     46  C   SER A   4      16.546   8.409  17.509  0.00  0.00    +0.243 C 
ATOM     47  N   GLU A   5      16.423   9.677  17.893  0.00  0.00    -0.297 N 
ATOM     48  H   GLU A   5      16.808   9.978  18.811  0.00  0.00    +0.150 HD
ATOM     49  O   SER A   4      16.095   8.016  16.424  0.00  0.00    -0.273 OA
BRANCH  46  50
ATOM     50  CA  SER A   4      17.273   7.452  18.415  0.00  0.00    +0.178 C 
BRANCH  50  53
ATOM     51  C   LEU A   3      16.928   5.125  17.798  0.00  0.00    +0.241 C 
ATOM     52  O   LEU A   3      16.104   4.951  18.691  0.00  0.00    -0.273 OA
ATOM     53  N   SER A   4      17.628   6.231  17.681  0.00  0.00    -0.295 N 
ATOM     54  H   SER A   4      18.456   6.242  17.051  0.00  0.00    +0.150 HD
BRANCH  51  55
ATOM     55  CA  LEU A   3      17.109   4.099  16.696  0.00  0.00    +0.149 C 
BRANCH  55  57
ATOM     56  C   ALA A   2      18.290   1.984  16.763  0.00  0.00    +0.241 C 
ATOM     57  N   LEU A   3      17.362   2.797  17.252  0.00  0.00    -0.297 N 
ATOM     58  H   LEU A   3      16.798   2.481  18.066  0.00  0.00    +0.150 HD
ATOM     59  O   ALA A   2      19.091   2.347  15.914  0.00  0.00    -0.273 OA
BRANCH  56  60
ATOM     60  CA  ALA A   2      18.365   0.582  17.400  0.00  0.00    +0.149 C 
ATOM     61  CB  ALA A   2      19.423   0.518  18.426  0.00  0.00    +0.031 C 
BRANCH  60  64
ATOM     62  C   LEU A   1      17.713  -1.246  15.891  0.00  0.00    +0.238 C 
ATOM     63  O   LEU A   1      16.684  -1.512  16.496  0.00  0.00    -0.274 OA
ATOM     64  N   ALA A   2      18.599  -0.324  16.274  0.00  0.00    -0.297 N 
ATOM     65  H   ALA A   2      19.494  -0.246  15.750  0.00  0.00    +0.150 HD
BRANCH  62  66
ATOM     66  CA  LEU A   1      18.101  -2.043  14.652  0.00  0.00    +0.145 C 
BRANCH  66  67
ATOM     67  N   LEU A   1      17.854  -3.441  14.834  0.00  0.00    -0.238 NA
ATOM     68  H   LEU A   1      17.003  -3.866  14.414  0.00  0.00    +0.142 HD
ENDBRANCH  66  67
BRANCH  66  69
ATOM     69  CB  LEU A   1      17.176  -1.583  13.503  0.00  0.00    +0.026 C 
BRANCH  69  70
ATOM     70  CG  LEU A   1      17.424  -0.199  13.002  0.00  0.00    +0.002 C 
ATOM     71  CD2 LEU A   1      18.773   0.036  12.421  0.00  0.00    +0.000 C 
ATOM     72  CD1 LEU A   1      16.354   0.121  11.937  0.00  0.00    +0.000 C 
ENDBRANCH  69  70
ENDBRANCH  66  69
ENDBRANCH  62  66
ENDBRANCH  60  64
ENDBRANCH  56  60
ENDBRANCH  55  57
BRANCH  55  73
ATOM     73  CB  LEU A   3      15.795   4.084  15.911  0.00  0.00    +0.029 C 
BRANCH  73  74
ATOM     74  CG  LEU A   3      15.767   3.154  14.674  0.00  0.00    +0.002 C 
ATOM     75  CD2 LEU A   3      14.343   3.080  14.157  0.00  0.00    +0.000 C 
ATOM     76  CD1 LEU A   3      16.750   3.632  13.647  0.00  0.00    +0.000 C 
ENDBRANCH  73  74
ENDBRANCH  55  73
ENDBRANCH  51  55
ENDBRANCH  50  53
BRANCH  50  77
ATOM     77  CB  SER A   4      18.494   8.106  19.053  0.00  0.00    +0.166 C 
BRANCH  77  78
ATOM     78  OG  SER A   4      19.359   8.650  18.076  0.00  0.00    -0.380 OA
ATOM     79  H   SER A   4      20.139   9.066  18.522  0.00  0.00    +0.211 HD
ENDBRANCH  77  78
ENDBRANCH  50  77
ENDBRANCH  46  50
ENDBRANCH  45  47
BRANCH  45  80
ATOM     80  CB  GLU A   5      15.120  11.727  17.887  0.00  0.00    +0.041 C 
BRANCH  80  81
ATOM     81  CG  GLU A   5      13.960  11.207  18.660  0.00  0.00    +0.116 C 
BRANCH  81  82
ATOM     82  CD  GLU A   5      13.197  12.242  19.404  0.00  0.00    +0.365 C 
ATOM     83  OE2 GLU A   5      13.778  13.098  20.115  0.00  0.00    -0.246 OA
ATOM     84  OE1 GLU A   5      11.916  12.217  19.283  0.00  0.00    -0.246 OA
ENDBRANCH  81  82
ENDBRANCH  80  81
ENDBRANCH  45  80
ENDBRANCH   1  45
TORSDOF 33
REMARK  Name = ../refined-set-2016/4x5y/4x5y_pocket.pdb
REMARK  247 active torsions:
REMARK  status: ('A' for Active; 'I' for Inactive)
REMARK    1  A    between atoms: _1  and  _3
REMARK    2  A    between atoms: _3  and  _4
REMARK    3  A    between atoms: _3  and  _6
REMARK    4  A    between atoms: _6  and  _7
REMARK    5  A    between atoms: _10  and  _12
REMARK    6  A    between atoms: _12  and  _13
REMARK    7  A    between atoms: _12  and  _15
REMARK    8  A    between atoms: _15  and  _16
REMARK    9  A    between atoms: _18  and  _20
REMARK   10  A    between atoms: _20  and  _21
REMARK   11  A    between atoms: _20  and  _23
REMARK   12  A    between atoms: _23  and  _24
REMARK   13  A    between atoms: _26  and  _28
REMARK   14  A    between atoms: _28  and  _29
REMARK   15  A    between atoms: _31  and  _33
REMARK   16  A    between atoms: _33  and  _34
REMARK   17  A    between atoms: _37  and  _39
REMARK   18  A    between atoms: _39  and  _40
REMARK   19  A    between atoms: _39  and  _42
REMARK   20  A    between atoms: _42  and  _43
REMARK   21  A    between atoms: _49  and  _51
REMARK   22  A    between atoms: _51  and  _52
REMARK   23  A    between atoms: _51  and  _54
REMARK   24  A    between atoms: _54  and  _55
REMARK   25  A    between atoms: _58  and  _60
REMARK   26  A    between atoms: _60  and  _61
REMARK   27  A    between atoms: _64  and  _66
REMARK   28  A    between atoms: _66  and  _67
REMARK   29  A    between atoms: _66  and  _69
REMARK   30  A    between atoms: _69  and  _70
REMARK   31  A    between atoms: _73  and  _75
REMARK   32  A    between atoms: _75  and  _76
REMARK   33  A    between atoms: _75  and  _78
REMARK   34  A    between atoms: _78  and  _79
REMARK   35  A    between atoms: _81  and  _83
REMARK   36  A    between atoms: _83  and  _84
REMARK   37  A    between atoms: _83  and  _86
REMARK   38  A    between atoms: _86  and  _87
REMARK   39  A    between atoms: _87  and  _88
REMARK   40  A    between atoms: _91  and  _93
REMARK   41  A    between atoms: _93  and  _94
REMARK   42  A    between atoms: _93  and  _96
REMARK   43  A    between atoms: _96  and  _97
REMARK   44  A    between atoms: _100  and  _102
REMARK   45  A    between atoms: _102  and  _103
REMARK   46  A    between atoms: _102  and  _105
REMARK   47  A    between atoms: _105  and  _106
REMARK   48  A    between atoms: _111  and  _113
REMARK   49  A    between atoms: _113  and  _114
REMARK   50  A    between atoms: _117  and  _119
REMARK   51  A    between atoms: _119  and  _120
REMARK   52  A    between atoms: _119  and  _122
REMARK   53  A    between atoms: _122  and  _123
REMARK   54  A    between atoms: _133  and  _135
REMARK   55  A    between atoms: _135  and  _136
REMARK   56  A    between atoms: _135  and  _138
REMARK   57  A    between atoms: _138  and  _139
REMARK   58  A    between atoms: _142  and  _144
REMARK   59  A    between atoms: _144  and  _145
REMARK   60  A    between atoms: _144  and  _147
REMARK   61  A    between atoms: _147  and  _148
REMARK   62  A    between atoms: _158  and  _160
REMARK   63  A    between atoms: _160  and  _161
REMARK   64  A    between atoms: _160  and  _163
REMARK   65  A    between atoms: _163  and  _164
REMARK   66  A    between atoms: _169  and  _171
REMARK   67  A    between atoms: _171  and  _172
REMARK   68  A    between atoms: _174  and  _176
REMARK   69  A    between atoms: _176  and  _177
REMARK   70  A    between atoms: _176  and  _179
REMARK   71  A    between atoms: _179  and  _180
REMARK   72  A    between atoms: _190  and  _192
REMARK   73  A    between atoms: _192  and  _193
REMARK   74  A    between atoms: _192  and  _195
REMARK   75  A    between atoms: _195  and  _196
REMARK   76  A    between atoms: _199  and  _201
REMARK   77  A    between atoms: _201  and  _202
REMARK   78  A    between atoms: _201  and  _204
REMARK   79  A    between atoms: _204  and  _205
REMARK   80  A    between atoms: _205  and  _206
REMARK   81  A    between atoms: _208  and  _210
REMARK   82  A    between atoms: _210  and  _211
REMARK   83  A    between atoms: _210  and  _213
REMARK   84  A    between atoms: _215  and  _217
REMARK   85  A    between atoms: _217  and  _218
REMARK   86  A    between atoms: _221  and  _223
REMARK   87  A    between atoms: _223  and  _224
REMARK   88  A    between atoms: _223  and  _226
REMARK   89  A    between atoms: _226  and  _227
REMARK   90  A    between atoms: _233  and  _235
REMARK   91  A    between atoms: _235  and  _236
REMARK   92  A    between atoms: _235  and  _238
REMARK   93  A    between atoms: _238  and  _239
REMARK   94  A    between atoms: _239  and  _240
REMARK   95  A    between atoms: _242  and  _244
REMARK   96  A    between atoms: _244  and  _245
REMARK   97  A    between atoms: _244  and  _247
REMARK   98  A    between atoms: _250  and  _252
REMARK   99  A    between atoms: _252  and  _253
REMARK  100  A    between atoms: _252  and  _255
REMARK  101  A    between atoms: _257  and  _259
REMARK  102  A    between atoms: _259  and  _260
REMARK  103  A    between atoms: _263  and  _265
REMARK  104  A    between atoms: _265  and  _266
REMARK  105  A    between atoms: _265  and  _268
REMARK  106  A    between atoms: _268  and  _269
REMARK  107  A    between atoms: _274  and  _275
REMARK  108  A    between atoms: _278  and  _279
REMARK  109  A    between atoms: _284  and  _286
REMARK  110  A    between atoms: _286  and  _287
REMARK  111  A    between atoms: _286  and  _289
REMARK  112  A    between atoms: _289  and  _290
REMARK  113  A    between atoms: _290  and  _291
REMARK  114  A    between atoms: _293  and  _295
REMARK  115  A    between atoms: _295  and  _296
REMARK  116  A    between atoms: _299  and  _301
REMARK  117  A    between atoms: _301  and  _302
REMARK  118  A    between atoms: _301  and  _304
REMARK  119  A    between atoms: _304  and  _305
REMARK  120  A    between atoms: _308  and  _310
REMARK  121  A    between atoms: _310  and  _311
REMARK  122  A    between atoms: _313  and  _315
REMARK  123  A    between atoms: _315  and  _316
REMARK  124  A    between atoms: _315  and  _318
REMARK  125  A    between atoms: _318  and  _319
REMARK  126  A    between atoms: _324  and  _326
REMARK  127  A    between atoms: _326  and  _327
REMARK  128  A    between atoms: _326  and  _329
REMARK  129  A    between atoms: _329  and  _330
REMARK  130  A    between atoms: _333  and  _335
REMARK  131  A    between atoms: _335  and  _336
REMARK  132  A    between atoms: _335  and  _338
REMARK  133  A    between atoms: _338  and  _339
REMARK  134  A    between atoms: _344  and  _345
REMARK  135  A    between atoms: _347  and  _349
REMARK  136  A    between atoms: _349  and  _350
REMARK  137  A    between atoms: _349  and  _352
REMARK  138  A    between atoms: _352  and  _353
REMARK  139  A    between atoms: _356  and  _358
REMARK  140  A    between atoms: _358  and  _359
REMARK  141  A    between atoms: _358  and  _361
REMARK  142  A    between atoms: _361  and  _362
REMARK  143  A    between atoms: _367  and  _368
REMARK  144  A    between atoms: _371  and  _372
REMARK  145  A    between atoms: _377  and  _379
REMARK  146  A    between atoms: _379  and  _380
REMARK  147  A    between atoms: _379  and  _382
REMARK  148  A    between atoms: _382  and  _383
REMARK  149  A    between atoms: _388  and  _389
REMARK  150  A    between atoms: _391  and  _393
REMARK  151  A    between atoms: _393  and  _394
REMARK  152  A    between atoms: _393  and  _396
REMARK  153  A    between atoms: _396  and  _397
REMARK  154  A    between atoms: _397  and  _398
REMARK  155  A    between atoms: _400  and  _402
REMARK  156  A    between atoms: _402  and  _403
REMARK  157  A    between atoms: _402  and  _405
REMARK  158  A    between atoms: _405  and  _406
REMARK  159  A    between atoms: _411  and  _412
REMARK  160  A    between atoms: _414  and  _416
REMARK  161  A    between atoms: _416  and  _417
REMARK  162  A    between atoms: _416  and  _419
REMARK  163  A    between atoms: _419  and  _420
REMARK  164  A    between atoms: _423  and  _425
REMARK  165  A    between atoms: _425  and  _426
REMARK  166  A    between atoms: _429  and  _431
REMARK  167  A    between atoms: _431  and  _432
REMARK  168  A    between atoms: _434  and  _436
REMARK  169  A    between atoms: _436  and  _437
REMARK  170  A    between atoms: _436  and  _439
REMARK  171  A    between atoms: _439  and  _440
REMARK  172  A    between atoms: _445  and  _446
REMARK  173  A    between atoms: _448  and  _450
REMARK  174  A    between atoms: _450  and  _451
REMARK  175  A    between atoms: _450  and  _453
REMARK  176  A    between atoms: _453  and  _454
REMARK  177  A    between atoms: _459  and  _461
REMARK  178  A    between atoms: _461  and  _462
REMARK  179  A    between atoms: _461  and  _464
REMARK  180  A    between atoms: _466  and  _468
REMARK  181  A    between atoms: _468  and  _469
REMARK  182  A    between atoms: _468  and  _471
REMARK  183  A    between atoms: _471  and  _472
REMARK  184  A    between atoms: _472  and  _473
REMARK  185  A    between atoms: _473  and  _474
REMARK  186  A    between atoms: _483  and  _485
REMARK  187  A    between atoms: _485  and  _486
REMARK  188  A    between atoms: _489  and  _491
REMARK  189  A    between atoms: _491  and  _492
REMARK  190  A    between atoms: _495  and  _497
REMARK  191  A    between atoms: _497  and  _498
REMARK  192  A    between atoms: _497  and  _500
REMARK  193  A    between atoms: _500  and  _501
REMARK  194  A    between atoms: _511  and  _513
REMARK  195  A    between atoms: _513  and  _514
REMARK  196  A    between atoms: _513  and  _516
REMARK  197  A    between atoms: _516  and  _517
REMARK  198  A    between atoms: _520  and  _522
REMARK  199  A    between atoms: _522  and  _523
REMARK  200  A    between atoms: _522  and  _525
REMARK  201  A    between atoms: _525  and  _526
REMARK  202  A    between atoms: _526  and  _527
REMARK  203  A    between atoms: _530  and  _532
REMARK  204  A    between atoms: _532  and  _533
REMARK  205  A    between atoms: _532  and  _535
REMARK  206  A    between atoms: _535  and  _536
REMARK  207  A    between atoms: _539  and  _541
REMARK  208  A    between atoms: _541  and  _542
REMARK  209  A    between atoms: _541  and  _544
REMARK  210  A    between atoms: _544  and  _545
REMARK  211  A    between atoms: _545  and  _546
REMARK  212  A    between atoms: _546  and  _547
REMARK  213  A    between atoms: _547  and  _548
REMARK  214  A    between atoms: _552  and  _554
REMARK  215  A    between atoms: _554  and  _555
REMARK  216  A    between atoms: _554  and  _557
REMARK  217  A    between atoms: _557  and  _558
REMARK  218  A    between atoms: _558  and  _559
REMARK  219  A    between atoms: _562  and  _564
REMARK  220  A    between atoms: _564  and  _565
REMARK  221  A    between atoms: _564  and  _567
REMARK  222  A    between atoms: _567  and  _568
REMARK  223  A    between atoms: _574  and  _576
REMARK  224  A    between atoms: _576  and  _577
REMARK  225  A    between atoms: _576  and  _579
REMARK  226  A    between atoms: _579  and  _580
REMARK  227  A    between atoms: _586  and  _588
REMARK  228  A    between atoms: _588  and  _589
REMARK  229  A    between atoms: _588  and  _591
REMARK  230  A    between atoms: _591  and  _592
REMARK  231  A    between atoms: _592  and  _593
REMARK  232  A    between atoms: _596  and  _598
REMARK  233  A    between atoms: _598  and  _599
REMARK  234  A    between atoms: _598  and  _601
REMARK  235  A    between atoms: _604  and  _606
REMARK  236  A    between atoms: _606  and  _607
REMARK  237  A    between atoms: _610  and  _612
REMARK  238  A    between atoms: _612  and  _613
REMARK  239  A    between atoms: _612  and  _615
REMARK  240  A    between atoms: _615  and  _616
REMARK  241  A    between atoms: _619  and  _621
REMARK  242  A    between atoms: _621  and  _622
REMARK  243  A    between atoms: _621  and  _624
REMARK  244  A    between atoms: _627  and  _629
REMARK  245  A    between atoms: _629  and  _630
REMARK  246  A    between atoms: _629  and  _632
REMARK  247  A    between atoms: _632  and  _633
REMARK                            x       y       z     vdW  Elec       q    Type
REMARK                         _______ _______ _______ _____ _____    ______ ____
ROOT
ATOM      1  CA  TRP A   2      28.539   7.295  10.832  0.00  0.00    +0.153 C 
ENDROOT
BRANCH   1   4
ATOM      2  C   THR A   1      27.999   4.969  11.283  0.00  0.00    +0.241 C 
ATOM      3  O   THR A   1      28.388   5.070  12.464  0.00  0.00    -0.274 OA
ATOM      4  N   TRP A   2      28.039   5.991  10.464  0.00  0.00    -0.297 N 
ATOM      5  H   TRP A   2      27.691   5.855   9.493  0.00  0.00    +0.150 HD
BRANCH   2   6
ATOM      6  CA  THR A   1      27.437   3.641  10.736  0.00  0.00    +0.172 C 
BRANCH   6   7
ATOM      7  N   THR A   1      27.439   2.626  11.728  0.00  0.00    -0.236 NA
ATOM      8  H   THR A   1      27.164   2.886  12.697  0.00  0.00    +0.142 HD
ENDBRANCH   6   7
BRANCH   6   9
ATOM      9  CB  THR A   1      26.021   3.802  10.130  0.00  0.00    +0.135 C 
ATOM     10  CG2 THR A   1      25.044   4.392  11.161  0.00  0.00    +0.034 C 
BRANCH   9  11
ATOM     11  OG1 THR A   1      26.081   4.634   8.967  0.00  0.00    -0.383 OA
ATOM     12  HG1 THR A   1      25.173   4.732   8.586  0.00  0.00    +0.210 HD
ENDBRANCH   9  11
ENDBRANCH   6   9
ENDBRANCH   2   6
ENDBRANCH   1   4
BRANCH   1  13
ATOM     13  C   TRP A   2      27.382   8.152  11.349  0.00  0.00    +0.241 C 
ATOM     14  N   HIS A   3      27.730   9.236  12.028  0.00  0.00    -0.297 N 
ATOM     15  H   HIS A   3      28.733   9.401  12.250  0.00  0.00    +0.150 HD
ATOM     16  O   TRP A   2      26.227   7.769  11.141  0.00  0.00    -0.273 OA
BRANCH  14  17
ATOM     17  CA  HIS A   3      26.738  10.194  12.466  0.00  0.00    +0.155 C 
BRANCH  17  18
ATOM     18  C   HIS A   3      27.142  11.560  12.024  0.00  0.00    +0.241 C 
ATOM     19  O   HIS A   3      28.272  11.988  12.303  0.00  0.00    -0.273 OA
ATOM     20  N   GLY A   4      26.216  12.241  11.373  0.00  0.00    -0.296 N 
ATOM     21  H   GLY A   4      25.320  11.773  11.130  0.00  0.00    +0.150 HD
BRANCH  20  22
ATOM     22  CA  GLY A   4      26.417  13.627  10.988  0.00  0.00    +0.163 C 
BRANCH  22  23
ATOM     23  C   GLY A   4      27.518  13.748   9.962  0.00  0.00    +0.229 C 
ATOM     24  O   GLY A   4      27.680  12.875   9.104  0.00  0.00    -0.286 OA
ENDBRANCH  22  23
ENDBRANCH  20  22
ENDBRANCH  17  18
BRANCH  17  25
ATOM     25  CB  HIS A   3      26.536  10.176  13.963  0.00  0.00    +0.076 C 
BRANCH  25  26
ATOM     26  CG  HIS A   3      25.530  11.192  14.372  0.00  0.00    +0.082 A 
ATOM     27  ND1 HIS A   3      25.863  12.345  15.049  0.00  0.00    -0.227 NA
ATOM     28  CE1 HIS A   3      24.763  13.075  15.191  0.00  0.00    +0.199 A 
ATOM     29  NE2 HIS A   3      23.767  12.446  14.601  0.00  0.00    -0.221 NA
ATOM     30  CD2 HIS A   3      24.226  11.286  14.062  0.00  0.00    +0.115 A 
ENDBRANCH  25  26
ENDBRANCH  17  25
ENDBRANCH  14  17
ENDBRANCH   1  13
BRANCH   1  31
ATOM     31  CB  TRP A   2      29.240   8.014   9.713  0.00  0.00    +0.057 C 
BRANCH  31  32
ATOM     32  CG  TRP A   2      28.316   8.434   8.563  0.00  0.00    -0.002 A 
ATOM     33  CD1 TRP A   2      27.735   9.649   8.435  0.00  0.00    +0.068 A 
ATOM     34  NE1 TRP A   2      26.983   9.717   7.293  0.00  0.00    -0.352 N 
ATOM     35  HE1 TRP A   2      26.448  10.548   6.969  0.00  0.00    +0.166 HD
ATOM     36  CE2 TRP A   2      27.050   8.517   6.651  0.00  0.00    +0.056 A 
ATOM     37  CZ2 TRP A   2      26.481   8.106   5.452  0.00  0.00    +0.017 A 
ATOM     38  CH2 TRP A   2      26.762   6.860   5.022  0.00  0.00    +0.001 A 
ATOM     39  CZ3 TRP A   2      27.581   6.004   5.711  0.00  0.00    +0.000 A 
ATOM     40  CE3 TRP A   2      28.181   6.401   6.933  0.00  0.00    +0.001 A 
ATOM     41  CD2 TRP A   2      27.917   7.681   7.399  0.00  0.00    +0.013 A 
ENDBRANCH  31  32
ENDBRANCH   1  31
TORSDOF 14
REMARK  Name = ../refined-set-2016/4x5y/4x5y_pocket.pdb
REMARK  247 active torsions:
REMARK  status: ('A' for Active; 'I' for Inactive)
REMARK    1  A    between atoms: _1  and  _3
REMARK    2  A    between atoms: _3  and  _4
REMARK    3  A    between atoms: _3  and  _6
REMARK    4  A    between atoms: _6  and  _7
REMARK    5  A    between atoms: _10  and  _12
REMARK    6  A    between atoms: _12  and  _13
REMARK    7  A    between atoms: _12  and  _15
REMARK    8  A    between atoms: _15  and  _16
REMARK    9  A    between atoms: _18  and  _20
REMARK   10  A    between atoms: _20  and  _21
REMARK   11  A    between atoms: _20  and  _23
REMARK   12  A    between atoms: _23  and  _24
REMARK   13  A    between atoms: _26  and  _28
REMARK   14  A    between atoms: _28  and  _29
REMARK   15  A    between atoms: _31  and  _33
REMARK   16  A    between atoms: _33  and  _34
REMARK   17  A    between atoms: _37  and  _39
REMARK   18  A    between atoms: _39  and  _40
REMARK   19  A    between atoms: _39  and  _42
REMARK   20  A    between atoms: _42  and  _43
REMARK   21  A    between atoms: _49  and  _51
REMARK   22  A    between atoms: _51  and  _52
REMARK   23  A    between atoms: _51  and  _54
REMARK   24  A    between atoms: _54  and  _55
REMARK   25  A    between atoms: _58  and  _60
REMARK   26  A    between atoms: _60  and  _61
REMARK   27  A    between atoms: _64  and  _66
REMARK   28  A    between atoms: _66  and  _67
REMARK   29  A    between atoms: _66  and  _69
REMARK   30  A    between atoms: _69  and  _70
REMARK   31  A    between atoms: _73  and  _75
REMARK   32  A    between atoms: _75  and  _76
REMARK   33  A    between atoms: _75  and  _78
REMARK   34  A    between atoms: _78  and  _79
REMARK   35  A    between atoms: _81  and  _83
REMARK   36  A    between atoms: _83  and  _84
REMARK   37  A    between atoms: _83  and  _86
REMARK   38  A    between atoms: _86  and  _87
REMARK   39  A    between atoms: _87  and  _88
REMARK   40  A    between atoms: _91  and  _93
REMARK   41  A    between atoms: _93  and  _94
REMARK   42  A    between atoms: _93  and  _96
REMARK   43  A    between atoms: _96  and  _97
REMARK   44  A    between atoms: _100  and  _102
REMARK   45  A    between atoms: _102  and  _103
REMARK   46  A    between atoms: _102  and  _105
REMARK   47  A    between atoms: _105  and  _106
REMARK   48  A    between atoms: _111  and  _113
REMARK   49  A    between atoms: _113  and  _114
REMARK   50  A    between atoms: _117  and  _119
REMARK   51  A    between atoms: _119  and  _120
REMARK   52  A    between atoms: _119  and  _122
REMARK   53  A    between atoms: _122  and  _123
REMARK   54  A    between atoms: _133  and  _135
REMARK   55  A    between atoms: _135  and  _136
REMARK   56  A    between atoms: _135  and  _138
REMARK   57  A    between atoms: _138  and  _139
REMARK   58  A    between atoms: _142  and  _144
REMARK   59  A    between atoms: _144  and  _145
REMARK   60  A    between atoms: _144  and  _147
REMARK   61  A    between atoms: _147  and  _148
REMARK   62  A    between atoms: _158  and  _160
REMARK   63  A    between atoms: _160  and  _161
REMARK   64  A    between atoms: _160  and  _163
REMARK   65  A    between atoms: _163  and  _164
REMARK   66  A    between atoms: _169  and  _171
REMARK   67  A    between atoms: _171  and  _172
REMARK   68  A    between atoms: _174  and  _176
REMARK   69  A    between atoms: _176  and  _177
REMARK   70  A    between atoms: _176  and  _179
REMARK   71  A    between atoms: _179  and  _180
REMARK   72  A    between atoms: _190  and  _192
REMARK   73  A    between atoms: _192  and  _193
REMARK   74  A    between atoms: _192  and  _195
REMARK   75  A    between atoms: _195  and  _196
REMARK   76  A    between atoms: _199  and  _201
REMARK   77  A    between atoms: _201  and  _202
REMARK   78  A    between atoms: _201  and  _204
REMARK   79  A    between atoms: _204  and  _205
REMARK   80  A    between atoms: _205  and  _206
REMARK   81  A    between atoms: _208  and  _210
REMARK   82  A    between atoms: _210  and  _211
REMARK   83  A    between atoms: _210  and  _213
REMARK   84  A    between atoms: _215  and  _217
REMARK   85  A    between atoms: _217  and  _218
REMARK   86  A    between atoms: _221  and  _223
REMARK   87  A    between atoms: _223  and  _224
REMARK   88  A    between atoms: _223  and  _226
REMARK   89  A    between atoms: _226  and  _227
REMARK   90  A    between atoms: _233  and  _235
REMARK   91  A    between atoms: _235  and  _236
REMARK   92  A    between atoms: _235  and  _238
REMARK   93  A    between atoms: _238  and  _239
REMARK   94  A    between atoms: _239  and  _240
REMARK   95  A    between atoms: _242  and  _244
REMARK   96  A    between atoms: _244  and  _245
REMARK   97  A    between atoms: _244  and  _247
REMARK   98  A    between atoms: _250  and  _252
REMARK   99  A    between atoms: _252  and  _253
REMARK  100  A    between atoms: _252  and  _255
REMARK  101  A    between atoms: _257  and  _259
REMARK  102  A    between atoms: _259  and  _260
REMARK  103  A    between atoms: _263  and  _265
REMARK  104  A    between atoms: _265  and  _266
REMARK  105  A    between atoms: _265  and  _268
REMARK  106  A    between atoms: _268  and  _269
REMARK  107  A    between atoms: _274  and  _275
REMARK  108  A    between atoms: _278  and  _279
REMARK  109  A    between atoms: _284  and  _286
REMARK  110  A    between atoms: _286  and  _287
REMARK  111  A    between atoms: _286  and  _289
REMARK  112  A    between atoms: _289  and  _290
REMARK  113  A    between atoms: _290  and  _291
REMARK  114  A    between atoms: _293  and  _295
REMARK  115  A    between atoms: _295  and  _296
REMARK  116  A    between atoms: _299  and  _301
REMARK  117  A    between atoms: _301  and  _302
REMARK  118  A    between atoms: _301  and  _304
REMARK  119  A    between atoms: _304  and  _305
REMARK  120  A    between atoms: _308  and  _310
REMARK  121  A    between atoms: _310  and  _311
REMARK  122  A    between atoms: _313  and  _315
REMARK  123  A    between atoms: _315  and  _316
REMARK  124  A    between atoms: _315  and  _318
REMARK  125  A    between atoms: _318  and  _319
REMARK  126  A    between atoms: _324  and  _326
REMARK  127  A    between atoms: _326  and  _327
REMARK  128  A    between atoms: _326  and  _329
REMARK  129  A    between atoms: _329  and  _330
REMARK  130  A    between atoms: _333  and  _335
REMARK  131  A    between atoms: _335  and  _336
REMARK  132  A    between atoms: _335  and  _338
REMARK  133  A    between atoms: _338  and  _339
REMARK  134  A    between atoms: _344  and  _345
REMARK  135  A    between atoms: _347  and  _349
REMARK  136  A    between atoms: _349  and  _350
REMARK  137  A    between atoms: _349  and  _352
REMARK  138  A    between atoms: _352  and  _353
REMARK  139  A    between atoms: _356  and  _358
REMARK  140  A    between atoms: _358  and  _359
REMARK  141  A    between atoms: _358  and  _361
REMARK  142  A    between atoms: _361  and  _362
REMARK  143  A    between atoms: _367  and  _368
REMARK  144  A    between atoms: _371  and  _372
REMARK  145  A    between atoms: _377  and  _379
REMARK  146  A    between atoms: _379  and  _380
REMARK  147  A    between atoms: _379  and  _382
REMARK  148  A    between atoms: _382  and  _383
REMARK  149  A    between atoms: _388  and  _389
REMARK  150  A    between atoms: _391  and  _393
REMARK  151  A    between atoms: _393  and  _394
REMARK  152  A    between atoms: _393  and  _396
REMARK  153  A    between atoms: _396  and  _397
REMARK  154  A    between atoms: _397  and  _398
REMARK  155  A    between atoms: _400  and  _402
REMARK  156  A    between atoms: _402  and  _403
REMARK  157  A    between atoms: _402  and  _405
REMARK  158  A    between atoms: _405  and  _406
REMARK  159  A    between atoms: _411  and  _412
REMARK  160  A    between atoms: _414  and  _416
REMARK  161  A    between atoms: _416  and  _417
REMARK  162  A    between atoms: _416  and  _419
REMARK  163  A    between atoms: _419  and  _420
REMARK  164  A    between atoms: _423  and  _425
REMARK  165  A    between atoms: _425  and  _426
REMARK  166  A    between atoms: _429  and  _431
REMARK  167  A    between atoms: _431  and  _432
REMARK  168  A    between atoms: _434  and  _436
REMARK  169  A    between atoms: _436  and  _437
REMARK  170  A    between atoms: _436  and  _439
REMARK  171  A    between atoms: _439  and  _440
REMARK  172  A    between atoms: _445  and  _446
REMARK  173  A    between atoms: _448  and  _450
REMARK  174  A    between atoms: _450  and  _451
REMARK  175  A    between atoms: _450  and  _453
REMARK  176  A    between atoms: _453  and  _454
REMARK  177  A    between atoms: _459  and  _461
REMARK  178  A    between atoms: _461  and  _462
REMARK  179  A    between atoms: _461  and  _464
REMARK  180  A    between atoms: _466  and  _468
REMARK  181  A    between atoms: _468  and  _469
REMARK  182  A    between atoms: _468  and  _471
REMARK  183  A    between atoms: _471  and  _472
REMARK  184  A    between atoms: _472  and  _473
REMARK  185  A    between atoms: _473  and  _474
REMARK  186  A    between atoms: _483  and  _485
REMARK  187  A    between atoms: _485  and  _486
REMARK  188  A    between atoms: _489  and  _491
REMARK  189  A    between atoms: _491  and  _492
REMARK  190  A    between atoms: _495  and  _497
REMARK  191  A    between atoms: _497  and  _498
REMARK  192  A    between atoms: _497  and  _500
REMARK  193  A    between atoms: _500  and  _501
REMARK  194  A    between atoms: _511  and  _513
REMARK  195  A    between atoms: _513  and  _514
REMARK  196  A    between atoms: _513  and  _516
REMARK  197  A    between atoms: _516  and  _517
REMARK  198  A    between atoms: _520  and  _522
REMARK  199  A    between atoms: _522  and  _523
REMARK  200  A    between atoms: _522  and  _525
REMARK  201  A    between atoms: _525  and  _526
REMARK  202  A    between atoms: _526  and  _527
REMARK  203  A    between atoms: _530  and  _532
REMARK  204  A    between atoms: _532  and  _533
REMARK  205  A    between atoms: _532  and  _535
REMARK  206  A    between atoms: _535  and  _536
REMARK  207  A    between atoms: _539  and  _541
REMARK  208  A    between atoms: _541  and  _542
REMARK  209  A    between atoms: _541  and  _544
REMARK  210  A    between atoms: _544  and  _545
REMARK  211  A    between atoms: _545  and  _546
REMARK  212  A    between atoms: _546  and  _547
REMARK  213  A    between atoms: _547  and  _548
REMARK  214  A    between atoms: _552  and  _554
REMARK  215  A    between atoms: _554  and  _555
REMARK  216  A    between atoms: _554  and  _557
REMARK  217  A    between atoms: _557  and  _558
REMARK  218  A    between atoms: _558  and  _559
REMARK  219  A    between atoms: _562  and  _564
REMARK  220  A    between atoms: _564  and  _565
REMARK  221  A    between atoms: _564  and  _567
REMARK  222  A    between atoms: _567  and  _568
REMARK  223  A    between atoms: _574  and  _576
REMARK  224  A    between atoms: _576  and  _577
REMARK  225  A    between atoms: _576  and  _579
REMARK  226  A    between atoms: _579  and  _580
REMARK  227  A    between atoms: _586  and  _588
REMARK  228  A    between atoms: _588  and  _589
REMARK  229  A    between atoms: _588  and  _591
REMARK  230  A    between atoms: _591  and  _592
REMARK  231  A    between atoms: _592  and  _593
REMARK  232  A    between atoms: _596  and  _598
REMARK  233  A    between atoms: _598  and  _599
REMARK  234  A    between atoms: _598  and  _601
REMARK  235  A    between atoms: _604  and  _606
REMARK  236  A    between atoms: _606  and  _607
REMARK  237  A    between atoms: _610  and  _612
REMARK  238  A    between atoms: _612  and  _613
REMARK  239  A    between atoms: _612  and  _615
REMARK  240  A    between atoms: _615  and  _616
REMARK  241  A    between atoms: _619  and  _621
REMARK  242  A    between atoms: _621  and  _622
REMARK  243  A    between atoms: _621  and  _624
REMARK  244  A    between atoms: _627  and  _629
REMARK  245  A    between atoms: _629  and  _630
REMARK  246  A    between atoms: _629  and  _632
REMARK  247  A    between atoms: _632  and  _633
REMARK                            x       y       z     vdW  Elec       q    Type
REMARK                         _______ _______ _______ _____ _____    ______ ____
ROOT
ATOM      1  CA  TRP A   1      19.986  13.914  23.209  0.00  0.00    +0.149 C 
ENDROOT
BRANCH   1   2
ATOM      2  C   TRP A   1      20.181  12.743  22.229  0.00  0.00    +0.239 C 
ATOM      3  O   TRP A   1      19.277  11.938  21.970  0.00  0.00    -0.274 OA
ATOM      4  N   LEU A   2      21.374  12.682  21.636  0.00  0.00    -0.298 N 
ATOM      5  H   LEU A   2      22.131  13.328  21.938  0.00  0.00    +0.150 HD
BRANCH   4   6
ATOM      6  CA  LEU A   2      21.632  11.721  20.569  0.00  0.00    +0.137 C 
BRANCH   6   7
ATOM      7  C   LEU A   2      21.325  10.273  20.981  0.00  0.00    +0.227 C 
ATOM      8  O   LEU A   2      20.902   9.467  20.158  0.00  0.00    -0.286 OA
ENDBRANCH   6   7
BRANCH   6   9
ATOM      9  CB  LEU A   2      23.086  11.784  20.125  0.00  0.00    +0.028 C 
BRANCH   9  10
ATOM     10  CG  LEU A   2      23.365  11.073  18.788  0.00  0.00    +0.002 C 
ATOM     11  CD2 LEU A   2      24.851  11.130  18.442  0.00  0.00    +0.000 C 
ATOM     12  CD1 LEU A   2      22.436  11.582  17.715  0.00  0.00    +0.000 C 
ENDBRANCH   9  10
ENDBRANCH   6   9
ENDBRANCH   4   6
ENDBRANCH   1   2
BRANCH   1  13
ATOM     13  N   TRP A   1      21.177  14.205  23.984  0.00  0.00    -0.238 NA
ATOM     14  H   TRP A   1      21.612  15.149  23.944  0.00  0.00    +0.142 HD
ENDBRANCH   1  13
BRANCH   1  15
ATOM     15  CB  TRP A   1      19.418  15.150  22.523  0.00  0.00    +0.054 C 
BRANCH  15  16
ATOM     16  CG  TRP A   1      18.312  14.891  21.529  0.00  0.00    -0.002 A 
ATOM     17  CD1 TRP A   1      17.006  14.566  21.789  0.00  0.00    +0.068 A 
ATOM     18  NE1 TRP A   1      16.322  14.455  20.610  0.00  0.00    -0.352 N 
ATOM     19  HE1 TRP A   1      15.317  14.203  20.520  0.00  0.00    +0.166 HD
ATOM     20  CE2 TRP A   1      17.160  14.725  19.572  0.00  0.00    +0.056 A 
ATOM     21  CZ2 TRP A   1      16.942  14.754  18.211  0.00  0.00    +0.017 A 
ATOM     22  CH2 TRP A   1      17.992  15.094  17.412  0.00  0.00    +0.001 A 
ATOM     23  CZ3 TRP A   1      19.285  15.334  17.920  0.00  0.00    +0.000 A 
ATOM     24  CE3 TRP A   1      19.528  15.285  19.272  0.00  0.00    +0.001 A 
ATOM     25  CD2 TRP A   1      18.434  15.019  20.139  0.00  0.00    +0.013 A 
ENDBRANCH  15  16
ENDBRANCH   1  15
TORSDOF 8
REMARK  Name = ../refined-set-2016/4x5y/4x5y_pocket.pdb
REMARK  247 active torsions:
REMARK  status: ('A' for Active; 'I' for Inactive)
REMARK    1  A    between atoms: _1  and  _3
REMARK    2  A    between atoms: _3  and  _4
REMARK    3  A    between atoms: _3  and  _6
REMARK    4  A    between atoms: _6  and  _7
REMARK    5  A    between atoms: _10  and  _12
REMARK    6  A    between atoms: _12  and  _13
REMARK    7  A    between atoms: _12  and  _15
REMARK    8  A    between atoms: _15  and  _16
REMARK    9  A    between atoms: _18  and  _20
REMARK   10  A    between atoms: _20  and  _21
REMARK   11  A    between atoms: _20  and  _23
REMARK   12  A    between atoms: _23  and  _24
REMARK   13  A    between atoms: _26  and  _28
REMARK   14  A    between atoms: _28  and  _29
REMARK   15  A    between atoms: _31  and  _33
REMARK   16  A    between atoms: _33  and  _34
REMARK   17  A    between atoms: _37  and  _39
REMARK   18  A    between atoms: _39  and  _40
REMARK   19  A    between atoms: _39  and  _42
REMARK   20  A    between atoms: _42  and  _43
REMARK   21  A    between atoms: _49  and  _51
REMARK   22  A    between atoms: _51  and  _52
REMARK   23  A    between atoms: _51  and  _54
REMARK   24  A    between atoms: _54  and  _55
REMARK   25  A    between atoms: _58  and  _60
REMARK   26  A    between atoms: _60  and  _61
REMARK   27  A    between atoms: _64  and  _66
REMARK   28  A    between atoms: _66  and  _67
REMARK   29  A    between atoms: _66  and  _69
REMARK   30  A    between atoms: _69  and  _70
REMARK   31  A    between atoms: _73  and  _75
REMARK   32  A    between atoms: _75  and  _76
REMARK   33  A    between atoms: _75  and  _78
REMARK   34  A    between atoms: _78  and  _79
REMARK   35  A    between atoms: _81  and  _83
REMARK   36  A    between atoms: _83  and  _84
REMARK   37  A    between atoms: _83  and  _86
REMARK   38  A    between atoms: _86  and  _87
REMARK   39  A    between atoms: _87  and  _88
REMARK   40  A    between atoms: _91  and  _93
REMARK   41  A    between atoms: _93  and  _94
REMARK   42  A    between atoms: _93  and  _96
REMARK   43  A    between atoms: _96  and  _97
REMARK   44  A    between atoms: _100  and  _102
REMARK   45  A    between atoms: _102  and  _103
REMARK   46  A    between atoms: _102  and  _105
REMARK   47  A    between atoms: _105  and  _106
REMARK   48  A    between atoms: _111  and  _113
REMARK   49  A    between atoms: _113  and  _114
REMARK   50  A    between atoms: _117  and  _119
REMARK   51  A    between atoms: _119  and  _120
REMARK   52  A    between atoms: _119  and  _122
REMARK   53  A    between atoms: _122  and  _123
REMARK   54  A    between atoms: _133  and  _135
REMARK   55  A    between atoms: _135  and  _136
REMARK   56  A    between atoms: _135  and  _138
REMARK   57  A    between atoms: _138  and  _139
REMARK   58  A    between atoms: _142  and  _144
REMARK   59  A    between atoms: _144  and  _145
REMARK   60  A    between atoms: _144  and  _147
REMARK   61  A    between atoms: _147  and  _148
REMARK   62  A    between atoms: _158  and  _160
REMARK   63  A    between atoms: _160  and  _161
REMARK   64  A    between atoms: _160  and  _163
REMARK   65  A    between atoms: _163  and  _164
REMARK   66  A    between atoms: _169  and  _171
REMARK   67  A    between atoms: _171  and  _172
REMARK   68  A    between atoms: _174  and  _176
REMARK   69  A    between atoms: _176  and  _177
REMARK   70  A    between atoms: _176  and  _179
REMARK   71  A    between atoms: _179  and  _180
REMARK   72  A    between atoms: _190  and  _192
REMARK   73  A    between atoms: _192  and  _193
REMARK   74  A    between atoms: _192  and  _195
REMARK   75  A    between atoms: _195  and  _196
REMARK   76  A    between atoms: _199  and  _201
REMARK   77  A    between atoms: _201  and  _202
REMARK   78  A    between atoms: _201  and  _204
REMARK   79  A    between atoms: _204  and  _205
REMARK   80  A    between atoms: _205  and  _206
REMARK   81  A    between atoms: _208  and  _210
REMARK   82  A    between atoms: _210  and  _211
REMARK   83  A    between atoms: _210  and  _213
REMARK   84  A    between atoms: _215  and  _217
REMARK   85  A    between atoms: _217  and  _218
REMARK   86  A    between atoms: _221  and  _223
REMARK   87  A    between atoms: _223  and  _224
REMARK   88  A    between atoms: _223  and  _226
REMARK   89  A    between atoms: _226  and  _227
REMARK   90  A    between atoms: _233  and  _235
REMARK   91  A    between atoms: _235  and  _236
REMARK   92  A    between atoms: _235  and  _238
REMARK   93  A    between atoms: _238  and  _239
REMARK   94  A    between atoms: _239  and  _240
REMARK   95  A    between atoms: _242  and  _244
REMARK   96  A    between atoms: _244  and  _245
REMARK   97  A    between atoms: _244  and  _247
REMARK   98  A    between atoms: _250  and  _252
REMARK   99  A    between atoms: _252  and  _253
REMARK  100  A    between atoms: _252  and  _255
REMARK  101  A    between atoms: _257  and  _259
REMARK  102  A    between atoms: _259  and  _260
REMARK  103  A    between atoms: _263  and  _265
REMARK  104  A    between atoms: _265  and  _266
REMARK  105  A    between atoms: _265  and  _268
REMARK  106  A    between atoms: _268  and  _269
REMARK  107  A    between atoms: _274  and  _275
REMARK  108  A    between atoms: _278  and  _279
REMARK  109  A    between atoms: _284  and  _286
REMARK  110  A    between atoms: _286  and  _287
REMARK  111  A    between atoms: _286  and  _289
REMARK  112  A    between atoms: _289  and  _290
REMARK  113  A    between atoms: _290  and  _291
REMARK  114  A    between atoms: _293  and  _295
REMARK  115  A    between atoms: _295  and  _296
REMARK  116  A    between atoms: _299  and  _301
REMARK  117  A    between atoms: _301  and  _302
REMARK  118  A    between atoms: _301  and  _304
REMARK  119  A    between atoms: _304  and  _305
REMARK  120  A    between atoms: _308  and  _310
REMARK  121  A    between atoms: _310  and  _311
REMARK  122  A    between atoms: _313  and  _315
REMARK  123  A    between atoms: _315  and  _316
REMARK  124  A    between atoms: _315  and  _318
REMARK  125  A    between atoms: _318  and  _319
REMARK  126  A    between atoms: _324  and  _326
REMARK  127  A    between atoms: _326  and  _327
REMARK  128  A    between atoms: _326  and  _329
REMARK  129  A    between atoms: _329  and  _330
REMARK  130  A    between atoms: _333  and  _335
REMARK  131  A    between atoms: _335  and  _336
REMARK  132  A    between atoms: _335  and  _338
REMARK  133  A    between atoms: _338  and  _339
REMARK  134  A    between atoms: _344  and  _345
REMARK  135  A    between atoms: _347  and  _349
REMARK  136  A    between atoms: _349  and  _350
REMARK  137  A    between atoms: _349  and  _352
REMARK  138  A    between atoms: _352  and  _353
REMARK  139  A    between atoms: _356  and  _358
REMARK  140  A    between atoms: _358  and  _359
REMARK  141  A    between atoms: _358  and  _361
REMARK  142  A    between atoms: _361  and  _362
REMARK  143  A    between atoms: _367  and  _368
REMARK  144  A    between atoms: _371  and  _372
REMARK  145  A    between atoms: _377  and  _379
REMARK  146  A    between atoms: _379  and  _380
REMARK  147  A    between atoms: _379  and  _382
REMARK  148  A    between atoms: _382  and  _383
REMARK  149  A    between atoms: _388  and  _389
REMARK  150  A    between atoms: _391  and  _393
REMARK  151  A    between atoms: _393  and  _394
REMARK  152  A    between atoms: _393  and  _396
REMARK  153  A    between atoms: _396  and  _397
REMARK  154  A    between atoms: _397  and  _398
REMARK  155  A    between atoms: _400  and  _402
REMARK  156  A    between atoms: _402  and  _403
REMARK  157  A    between atoms: _402  and  _405
REMARK  158  A    between atoms: _405  and  _406
REMARK  159  A    between atoms: _411  and  _412
REMARK  160  A    between atoms: _414  and  _416
REMARK  161  A    between atoms: _416  and  _417
REMARK  162  A    between atoms: _416  and  _419
REMARK  163  A    between atoms: _419  and  _420
REMARK  164  A    between atoms: _423  and  _425
REMARK  165  A    between atoms: _425  and  _426
REMARK  166  A    between atoms: _429  and  _431
REMARK  167  A    between atoms: _431  and  _432
REMARK  168  A    between atoms: _434  and  _436
REMARK  169  A    between atoms: _436  and  _437
REMARK  170  A    between atoms: _436  and  _439
REMARK  171  A    between atoms: _439  and  _440
REMARK  172  A    between atoms: _445  and  _446
REMARK  173  A    between atoms: _448  and  _450
REMARK  174  A    between atoms: _450  and  _451
REMARK  175  A    between atoms: _450  and  _453
REMARK  176  A    between atoms: _453  and  _454
REMARK  177  A    between atoms: _459  and  _461
REMARK  178  A    between atoms: _461  and  _462
REMARK  179  A    between atoms: _461  and  _464
REMARK  180  A    between atoms: _466  and  _468
REMARK  181  A    between atoms: _468  and  _469
REMARK  182  A    between atoms: _468  and  _471
REMARK  183  A    between atoms: _471  and  _472
REMARK  184  A    between atoms: _472  and  _473
REMARK  185  A    between atoms: _473  and  _474
REMARK  186  A    between atoms: _483  and  _485
REMARK  187  A    between atoms: _485  and  _486
REMARK  188  A    between atoms: _489  and  _491
REMARK  189  A    between atoms: _491  and  _492
REMARK  190  A    between atoms: _495  and  _497
REMARK  191  A    between atoms: _497  and  _498
REMARK  192  A    between atoms: _497  and  _500
REMARK  193  A    between atoms: _500  and  _501
REMARK  194  A    between atoms: _511  and  _513
REMARK  195  A    between atoms: _513  and  _514
REMARK  196  A    between atoms: _513  and  _516
REMARK  197  A    between atoms: _516  and  _517
REMARK  198  A    between atoms: _520  and  _522
REMARK  199  A    between atoms: _522  and  _523
REMARK  200  A    between atoms: _522  and  _525
REMARK  201  A    between atoms: _525  and  _526
REMARK  202  A    between atoms: _526  and  _527
REMARK  203  A    between atoms: _530  and  _532
REMARK  204  A    between atoms: _532  and  _533
REMARK  205  A    between atoms: _532  and  _535
REMARK  206  A    between atoms: _535  and  _536
REMARK  207  A    between atoms: _539  and  _541
REMARK  208  A    between atoms: _541  and  _542
REMARK  209  A    between atoms: _541  and  _544
REMARK  210  A    between atoms: _544  and  _545
REMARK  211  A    between atoms: _545  and  _546
REMARK  212  A    between atoms: _546  and  _547
REMARK  213  A    between atoms: _547  and  _548
REMARK  214  A    between atoms: _552  and  _554
REMARK  215  A    between atoms: _554  and  _555
REMARK  216  A    between atoms: _554  and  _557
REMARK  217  A    between atoms: _557  and  _558
REMARK  218  A    between atoms: _558  and  _559
REMARK  219  A    between atoms: _562  and  _564
REMARK  220  A    between atoms: _564  and  _565
REMARK  221  A    between atoms: _564  and  _567
REMARK  222  A    between atoms: _567  and  _568
REMARK  223  A    between atoms: _574  and  _576
REMARK  224  A    between atoms: _576  and  _577
REMARK  225  A    between atoms: _576  and  _579
REMARK  226  A    between atoms: _579  and  _580
REMARK  227  A    between atoms: _586  and  _588
REMARK  228  A    between atoms: _588  and  _589
REMARK  229  A    between atoms: _588  and  _591
REMARK  230  A    between atoms: _591  and  _592
REMARK  231  A    between atoms: _592  and  _593
REMARK  232  A    between atoms: _596  and  _598
REMARK  233  A    between atoms: _598  and  _599
REMARK  234  A    between atoms: _598  and  _601
REMARK  235  A    between atoms: _604  and  _606
REMARK  236  A    between atoms: _606  and  _607
REMARK  237  A    between atoms: _610  and  _612
REMARK  238  A    between atoms: _612  and  _613
REMARK  239  A    between atoms: _612  and  _615
REMARK  240  A    between atoms: _615  and  _616
REMARK  241  A    between atoms: _619  and  _621
REMARK  242  A    between atoms: _621  and  _622
REMARK  243  A    between atoms: _621  and  _624
REMARK  244  A    between atoms: _627  and  _629
REMARK  245  A    between atoms: _629  and  _630
REMARK  246  A    between atoms: _629  and  _632
REMARK  247  A    between atoms: _632  and  _633
REMARK                            x       y       z     vdW  Elec       q    Type
REMARK                         _______ _______ _______ _____ _____    ______ ____
ROOT
ATOM      1  CA  MET A   1      14.042   2.281  20.209  0.00  0.00    +0.134 C 
ENDROOT
BRANCH   1   2
ATOM      2  N   MET A   1      14.829   3.417  20.703  0.00  0.00    -0.239 NA
ATOM      3  H   MET A   1      15.130   4.154  20.034  0.00  0.00    +0.142 HD
ENDBRANCH   1   2
BRANCH   1   4
ATOM      4  C   MET A   1      14.919   1.089  19.978  0.00  0.00    +0.224 C 
ATOM      5  O   MET A   1      15.929   1.215  19.366  0.00  0.00    -0.287 OA
ENDBRANCH   1   4
BRANCH   1   6
ATOM      6  CB  MET A   1      13.293   2.649  18.925  0.00  0.00    +0.037 C 
BRANCH   6   7
ATOM      7  CG  MET A   1      12.528   3.913  18.994  0.00  0.00    +0.059 C 
BRANCH   7   8
ATOM      8  SD  MET A   1      11.850   4.363  17.371  0.00  0.00    -0.139 S 
ATOM      9  CE  MET A   1      11.119   2.761  16.885  0.00  0.00    +0.069 C 
ENDBRANCH   7   8
ENDBRANCH   6   7
ENDBRANCH   1   6
TORSDOF 5
REMARK  Name = ../refined-set-2016/4x5y/4x5y_pocket.pdb
REMARK  247 active torsions:
REMARK  status: ('A' for Active; 'I' for Inactive)
REMARK    1  A    between atoms: _1  and  _3
REMARK    2  A    between atoms: _3  and  _4
REMARK    3  A    between atoms: _3  and  _6
REMARK    4  A    between atoms: _6  and  _7
REMARK    5  A    between atoms: _10  and  _12
REMARK    6  A    between atoms: _12  and  _13
REMARK    7  A    between atoms: _12  and  _15
REMARK    8  A    between atoms: _15  and  _16
REMARK    9  A    between atoms: _18  and  _20
REMARK   10  A    between atoms: _20  and  _21
REMARK   11  A    between atoms: _20  and  _23
REMARK   12  A    between atoms: _23  and  _24
REMARK   13  A    between atoms: _26  and  _28
REMARK   14  A    between atoms: _28  and  _29
REMARK   15  A    between atoms: _31  and  _33
REMARK   16  A    between atoms: _33  and  _34
REMARK   17  A    between atoms: _37  and  _39
REMARK   18  A    between atoms: _39  and  _40
REMARK   19  A    between atoms: _39  and  _42
REMARK   20  A    between atoms: _42  and  _43
REMARK   21  A    between atoms: _49  and  _51
REMARK   22  A    between atoms: _51  and  _52
REMARK   23  A    between atoms: _51  and  _54
REMARK   24  A    between atoms: _54  and  _55
REMARK   25  A    between atoms: _58  and  _60
REMARK   26  A    between atoms: _60  and  _61
REMARK   27  A    between atoms: _64  and  _66
REMARK   28  A    between atoms: _66  and  _67
REMARK   29  A    between atoms: _66  and  _69
REMARK   30  A    between atoms: _69  and  _70
REMARK   31  A    between atoms: _73  and  _75
REMARK   32  A    between atoms: _75  and  _76
REMARK   33  A    between atoms: _75  and  _78
REMARK   34  A    between atoms: _78  and  _79
REMARK   35  A    between atoms: _81  and  _83
REMARK   36  A    between atoms: _83  and  _84
REMARK   37  A    between atoms: _83  and  _86
REMARK   38  A    between atoms: _86  and  _87
REMARK   39  A    between atoms: _87  and  _88
REMARK   40  A    between atoms: _91  and  _93
REMARK   41  A    between atoms: _93  and  _94
REMARK   42  A    between atoms: _93  and  _96
REMARK   43  A    between atoms: _96  and  _97
REMARK   44  A    between atoms: _100  and  _102
REMARK   45  A    between atoms: _102  and  _103
REMARK   46  A    between atoms: _102  and  _105
REMARK   47  A    between atoms: _105  and  _106
REMARK   48  A    between atoms: _111  and  _113
REMARK   49  A    between atoms: _113  and  _114
REMARK   50  A    between atoms: _117  and  _119
REMARK   51  A    between atoms: _119  and  _120
REMARK   52  A    between atoms: _119  and  _122
REMARK   53  A    between atoms: _122  and  _123
REMARK   54  A    between atoms: _133  and  _135
REMARK   55  A    between atoms: _135  and  _136
REMARK   56  A    between atoms: _135  and  _138
REMARK   57  A    between atoms: _138  and  _139
REMARK   58  A    between atoms: _142  and  _144
REMARK   59  A    between atoms: _144  and  _145
REMARK   60  A    between atoms: _144  and  _147
REMARK   61  A    between atoms: _147  and  _148
REMARK   62  A    between atoms: _158  and  _160
REMARK   63  A    between atoms: _160  and  _161
REMARK   64  A    between atoms: _160  and  _163
REMARK   65  A    between atoms: _163  and  _164
REMARK   66  A    between atoms: _169  and  _171
REMARK   67  A    between atoms: _171  and  _172
REMARK   68  A    between atoms: _174  and  _176
REMARK   69  A    between atoms: _176  and  _177
REMARK   70  A    between atoms: _176  and  _179
REMARK   71  A    between atoms: _179  and  _180
REMARK   72  A    between atoms: _190  and  _192
REMARK   73  A    between atoms: _192  and  _193
REMARK   74  A    between atoms: _192  and  _195
REMARK   75  A    between atoms: _195  and  _196
REMARK   76  A    between atoms: _199  and  _201
REMARK   77  A    between atoms: _201  and  _202
REMARK   78  A    between atoms: _201  and  _204
REMARK   79  A    between atoms: _204  and  _205
REMARK   80  A    between atoms: _205  and  _206
REMARK   81  A    between atoms: _208  and  _210
REMARK   82  A    between atoms: _210  and  _211
REMARK   83  A    between atoms: _210  and  _213
REMARK   84  A    between atoms: _215  and  _217
REMARK   85  A    between atoms: _217  and  _218
REMARK   86  A    between atoms: _221  and  _223
REMARK   87  A    between atoms: _223  and  _224
REMARK   88  A    between atoms: _223  and  _226
REMARK   89  A    between atoms: _226  and  _227
REMARK   90  A    between atoms: _233  and  _235
REMARK   91  A    between atoms: _235  and  _236
REMARK   92  A    between atoms: _235  and  _238
REMARK   93  A    between atoms: _238  and  _239
REMARK   94  A    between atoms: _239  and  _240
REMARK   95  A    between atoms: _242  and  _244
REMARK   96  A    between atoms: _244  and  _245
REMARK   97  A    between atoms: _244  and  _247
REMARK   98  A    between atoms: _250  and  _252
REMARK   99  A    between atoms: _252  and  _253
REMARK  100  A    between atoms: _252  and  _255
REMARK  101  A    between atoms: _257  and  _259
REMARK  102  A    between atoms: _259  and  _260
REMARK  103  A    between atoms: _263  and  _265
REMARK  104  A    between atoms: _265  and  _266
REMARK  105  A    between atoms: _265  and  _268
REMARK  106  A    between atoms: _268  and  _269
REMARK  107  A    between atoms: _274  and  _275
REMARK  108  A    between atoms: _278  and  _279
REMARK  109  A    between atoms: _284  and  _286
REMARK  110  A    between atoms: _286  and  _287
REMARK  111  A    between atoms: _286  and  _289
REMARK  112  A    between atoms: _289  and  _290
REMARK  113  A    between atoms: _290  and  _291
REMARK  114  A    between atoms: _293  and  _295
REMARK  115  A    between atoms: _295  and  _296
REMARK  116  A    between atoms: _299  and  _301
REMARK  117  A    between atoms: _301  and  _302
REMARK  118  A    between atoms: _301  and  _304
REMARK  119  A    between atoms: _304  and  _305
REMARK  120  A    between atoms: _308  and  _310
REMARK  121  A    between atoms: _310  and  _311
REMARK  122  A    between atoms: _313  and  _315
REMARK  123  A    between atoms: _315  and  _316
REMARK  124  A    between atoms: _315  and  _318
REMARK  125  A    between atoms: _318  and  _319
REMARK  126  A    between atoms: _324  and  _326
REMARK  127  A    between atoms: _326  and  _327
REMARK  128  A    between atoms: _326  and  _329
REMARK  129  A    between atoms: _329  and  _330
REMARK  130  A    between atoms: _333  and  _335
REMARK  131  A    between atoms: _335  and  _336
REMARK  132  A    between atoms: _335  and  _338
REMARK  133  A    between atoms: _338  and  _339
REMARK  134  A    between atoms: _344  and  _345
REMARK  135  A    between atoms: _347  and  _349
REMARK  136  A    between atoms: _349  and  _350
REMARK  137  A    between atoms: _349  and  _352
REMARK  138  A    between atoms: _352  and  _353
REMARK  139  A    between atoms: _356  and  _358
REMARK  140  A    between atoms: _358  and  _359
REMARK  141  A    between atoms: _358  and  _361
REMARK  142  A    between atoms: _361  and  _362
REMARK  143  A    between atoms: _367  and  _368
REMARK  144  A    between atoms: _371  and  _372
REMARK  145  A    between atoms: _377  and  _379
REMARK  146  A    between atoms: _379  and  _380
REMARK  147  A    between atoms: _379  and  _382
REMARK  148  A    between atoms: _382  and  _383
REMARK  149  A    between atoms: _388  and  _389
REMARK  150  A    between atoms: _391  and  _393
REMARK  151  A    between atoms: _393  and  _394
REMARK  152  A    between atoms: _393  and  _396
REMARK  153  A    between atoms: _396  and  _397
REMARK  154  A    between atoms: _397  and  _398
REMARK  155  A    between atoms: _400  and  _402
REMARK  156  A    between atoms: _402  and  _403
REMARK  157  A    between atoms: _402  and  _405
REMARK  158  A    between atoms: _405  and  _406
REMARK  159  A    between atoms: _411  and  _412
REMARK  160  A    between atoms: _414  and  _416
REMARK  161  A    between atoms: _416  and  _417
REMARK  162  A    between atoms: _416  and  _419
REMARK  163  A    between atoms: _419  and  _420
REMARK  164  A    between atoms: _423  and  _425
REMARK  165  A    between atoms: _425  and  _426
REMARK  166  A    between atoms: _429  and  _431
REMARK  167  A    between atoms: _431  and  _432
REMARK  168  A    between atoms: _434  and  _436
REMARK  169  A    between atoms: _436  and  _437
REMARK  170  A    between atoms: _436  and  _439
REMARK  171  A    between atoms: _439  and  _440
REMARK  172  A    between atoms: _445  and  _446
REMARK  173  A    between atoms: _448  and  _450
REMARK  174  A    between atoms: _450  and  _451
REMARK  175  A    between atoms: _450  and  _453
REMARK  176  A    between atoms: _453  and  _454
REMARK  177  A    between atoms: _459  and  _461
REMARK  178  A    between atoms: _461  and  _462
REMARK  179  A    between atoms: _461  and  _464
REMARK  180  A    between atoms: _466  and  _468
REMARK  181  A    between atoms: _468  and  _469
REMARK  182  A    between atoms: _468  and  _471
REMARK  183  A    between atoms: _471  and  _472
REMARK  184  A    between atoms: _472  and  _473
REMARK  185  A    between atoms: _473  and  _474
REMARK  186  A    between atoms: _483  and  _485
REMARK  187  A    between atoms: _485  and  _486
REMARK  188  A    between atoms: _489  and  _491
REMARK  189  A    between atoms: _491  and  _492
REMARK  190  A    between atoms: _495  and  _497
REMARK  191  A    between atoms: _497  and  _498
REMARK  192  A    between atoms: _497  and  _500
REMARK  193  A    between atoms: _500  and  _501
REMARK  194  A    between atoms: _511  and  _513
REMARK  195  A    between atoms: _513  and  _514
REMARK  196  A    between atoms: _513  and  _516
REMARK  197  A    between atoms: _516  and  _517
REMARK  198  A    between atoms: _520  and  _522
REMARK  199  A    between atoms: _522  and  _523
REMARK  200  A    between atoms: _522  and  _525
REMARK  201  A    between atoms: _525  and  _526
REMARK  202  A    between atoms: _526  and  _527
REMARK  203  A    between atoms: _530  and  _532
REMARK  204  A    between atoms: _532  and  _533
REMARK  205  A    between atoms: _532  and  _535
REMARK  206  A    between atoms: _535  and  _536
REMARK  207  A    between atoms: _539  and  _541
REMARK  208  A    between atoms: _541  and  _542
REMARK  209  A    between atoms: _541  and  _544
REMARK  210  A    between atoms: _544  and  _545
REMARK  211  A    between atoms: _545  and  _546
REMARK  212  A    between atoms: _546  and  _547
REMARK  213  A    between atoms: _547  and  _548
REMARK  214  A    between atoms: _552  and  _554
REMARK  215  A    between atoms: _554  and  _555
REMARK  216  A    between atoms: _554  and  _557
REMARK  217  A    between atoms: _557  and  _558
REMARK  218  A    between atoms: _558  and  _559
REMARK  219  A    between atoms: _562  and  _564
REMARK  220  A    between atoms: _564  and  _565
REMARK  221  A    between atoms: _564  and  _567
REMARK  222  A    between atoms: _567  and  _568
REMARK  223  A    between atoms: _574  and  _576
REMARK  224  A    between atoms: _576  and  _577
REMARK  225  A    between atoms: _576  and  _579
REMARK  226  A    between atoms: _579  and  _580
REMARK  227  A    between atoms: _586  and  _588
REMARK  228  A    between atoms: _588  and  _589
REMARK  229  A    between atoms: _588  and  _591
REMARK  230  A    between atoms: _591  and  _592
REMARK  231  A    between atoms: _592  and  _593
REMARK  232  A    between atoms: _596  and  _598
REMARK  233  A    between atoms: _598  and  _599
REMARK  234  A    between atoms: _598  and  _601
REMARK  235  A    between atoms: _604  and  _606
REMARK  236  A    between atoms: _606  and  _607
REMARK  237  A    between atoms: _610  and  _612
REMARK  238  A    between atoms: _612  and  _613
REMARK  239  A    between atoms: _612  and  _615
REMARK  240  A    between atoms: _615  and  _616
REMARK  241  A    between atoms: _619  and  _621
REMARK  242  A    between atoms: _621  and  _622
REMARK  243  A    between atoms: _621  and  _624
REMARK  244  A    between atoms: _627  and  _629
REMARK  245  A    between atoms: _629  and  _630
REMARK  246  A    between atoms: _629  and  _632
REMARK  247  A    between atoms: _632  and  _633
REMARK                            x       y       z     vdW  Elec       q    Type
REMARK                         _______ _______ _______ _____ _____    ______ ____
ROOT
ATOM      1  CA  CYS A   1      13.329  -2.726  17.197  0.00  0.00    +0.145 C 
ENDROOT
BRANCH   1   2
ATOM      2  N   CYS A   1      14.309  -2.147  18.113  0.00  0.00    -0.238 NA
ATOM      3  H   CYS A   1      15.197  -1.752  17.742  0.00  0.00    +0.142 HD
ENDBRANCH   1   2
BRANCH   1   4
ATOM      4  C   CYS A   1      13.270  -4.218  17.246  0.00  0.00    +0.225 C 
ATOM      5  O   CYS A   1      14.294  -4.877  17.403  0.00  0.00    -0.287 OA
ENDBRANCH   1   4
BRANCH   1   6
ATOM      6  CB  CYS A   1      13.663  -2.380  15.762  0.00  0.00    +0.094 C 
ATOM      7  SG  CYS A   1      13.574  -0.633  15.320  0.00  0.00    -0.080 S 
ENDBRANCH   1   6
TORSDOF 3
REMARK  Name = ../refined-set-2016/4x5y/4x5y_pocket.pdb
REMARK  247 active torsions:
REMARK  status: ('A' for Active; 'I' for Inactive)
REMARK    1  A    between atoms: _1  and  _3
REMARK    2  A    between atoms: _3  and  _4
REMARK    3  A    between atoms: _3  and  _6
REMARK    4  A    between atoms: _6  and  _7
REMARK    5  A    between atoms: _10  and  _12
REMARK    6  A    between atoms: _12  and  _13
REMARK    7  A    between atoms: _12  and  _15
REMARK    8  A    between atoms: _15  and  _16
REMARK    9  A    between atoms: _18  and  _20
REMARK   10  A    between atoms: _20  and  _21
REMARK   11  A    between atoms: _20  and  _23
REMARK   12  A    between atoms: _23  and  _24
REMARK   13  A    between atoms: _26  and  _28
REMARK   14  A    between atoms: _28  and  _29
REMARK   15  A    between atoms: _31  and  _33
REMARK   16  A    between atoms: _33  and  _34
REMARK   17  A    between atoms: _37  and  _39
REMARK   18  A    between atoms: _39  and  _40
REMARK   19  A    between atoms: _39  and  _42
REMARK   20  A    between atoms: _42  and  _43
REMARK   21  A    between atoms: _49  and  _51
REMARK   22  A    between atoms: _51  and  _52
REMARK   23  A    between atoms: _51  and  _54
REMARK   24  A    between atoms: _54  and  _55
REMARK   25  A    between atoms: _58  and  _60
REMARK   26  A    between atoms: _60  and  _61
REMARK   27  A    between atoms: _64  and  _66
REMARK   28  A    between atoms: _66  and  _67
REMARK   29  A    between atoms: _66  and  _69
REMARK   30  A    between atoms: _69  and  _70
REMARK   31  A    between atoms: _73  and  _75
REMARK   32  A    between atoms: _75  and  _76
REMARK   33  A    between atoms: _75  and  _78
REMARK   34  A    between atoms: _78  and  _79
REMARK   35  A    between atoms: _81  and  _83
REMARK   36  A    between atoms: _83  and  _84
REMARK   37  A    between atoms: _83  and  _86
REMARK   38  A    between atoms: _86  and  _87
REMARK   39  A    between atoms: _87  and  _88
REMARK   40  A    between atoms: _91  and  _93
REMARK   41  A    between atoms: _93  and  _94
REMARK   42  A    between atoms: _93  and  _96
REMARK   43  A    between atoms: _96  and  _97
REMARK   44  A    between atoms: _100  and  _102
REMARK   45  A    between atoms: _102  and  _103
REMARK   46  A    between atoms: _102  and  _105
REMARK   47  A    between atoms: _105  and  _106
REMARK   48  A    between atoms: _111  and  _113
REMARK   49  A    between atoms: _113  and  _114
REMARK   50  A    between atoms: _117  and  _119
REMARK   51  A    between atoms: _119  and  _120
REMARK   52  A    between atoms: _119  and  _122
REMARK   53  A    between atoms: _122  and  _123
REMARK   54  A    between atoms: _133  and  _135
REMARK   55  A    between atoms: _135  and  _136
REMARK   56  A    between atoms: _135  and  _138
REMARK   57  A    between atoms: _138  and  _139
REMARK   58  A    between atoms: _142  and  _144
REMARK   59  A    between atoms: _144  and  _145
REMARK   60  A    between atoms: _144  and  _147
REMARK   61  A    between atoms: _147  and  _148
REMARK   62  A    between atoms: _158  and  _160
REMARK   63  A    between atoms: _160  and  _161
REMARK   64  A    between atoms: _160  and  _163
REMARK   65  A    between atoms: _163  and  _164
REMARK   66  A    between atoms: _169  and  _171
REMARK   67  A    between atoms: _171  and  _172
REMARK   68  A    between atoms: _174  and  _176
REMARK   69  A    between atoms: _176  and  _177
REMARK   70  A    between atoms: _176  and  _179
REMARK   71  A    between atoms: _179  and  _180
REMARK   72  A    between atoms: _190  and  _192
REMARK   73  A    between atoms: _192  and  _193
REMARK   74  A    between atoms: _192  and  _195
REMARK   75  A    between atoms: _195  and  _196
REMARK   76  A    between atoms: _199  and  _201
REMARK   77  A    between atoms: _201  and  _202
REMARK   78  A    between atoms: _201  and  _204
REMARK   79  A    between atoms: _204  and  _205
REMARK   80  A    between atoms: _205  and  _206
REMARK   81  A    between atoms: _208  and  _210
REMARK   82  A    between atoms: _210  and  _211
REMARK   83  A    between atoms: _210  and  _213
REMARK   84  A    between atoms: _215  and  _217
REMARK   85  A    between atoms: _217  and  _218
REMARK   86  A    between atoms: _221  and  _223
REMARK   87  A    between atoms: _223  and  _224
REMARK   88  A    between atoms: _223  and  _226
REMARK   89  A    between atoms: _226  and  _227
REMARK   90  A    between atoms: _233  and  _235
REMARK   91  A    between atoms: _235  and  _236
REMARK   92  A    between atoms: _235  and  _238
REMARK   93  A    between atoms: _238  and  _239
REMARK   94  A    between atoms: _239  and  _240
REMARK   95  A    between atoms: _242  and  _244
REMARK   96  A    between atoms: _244  and  _245
REMARK   97  A    between atoms: _244  and  _247
REMARK   98  A    between atoms: _250  and  _252
REMARK   99  A    between atoms: _252  and  _253
REMARK  100  A    between atoms: _252  and  _255
REMARK  101  A    between atoms: _257  and  _259
REMARK  102  A    between atoms: _259  and  _260
REMARK  103  A    between atoms: _263  and  _265
REMARK  104  A    between atoms: _265  and  _266
REMARK  105  A    between atoms: _265  and  _268
REMARK  106  A    between atoms: _268  and  _269
REMARK  107  A    between atoms: _274  and  _275
REMARK  108  A    between atoms: _278  and  _279
REMARK  109  A    between atoms: _284  and  _286
REMARK  110  A    between atoms: _286  and  _287
REMARK  111  A    between atoms: _286  and  _289
REMARK  112  A    between atoms: _289  and  _290
REMARK  113  A    between atoms: _290  and  _291
REMARK  114  A    between atoms: _293  and  _295
REMARK  115  A    between atoms: _295  and  _296
REMARK  116  A    between atoms: _299  and  _301
REMARK  117  A    between atoms: _301  and  _302
REMARK  118  A    between atoms: _301  and  _304
REMARK  119  A    between atoms: _304  and  _305
REMARK  120  A    between atoms: _308  and  _310
REMARK  121  A    between atoms: _310  and  _311
REMARK  122  A    between atoms: _313  and  _315
REMARK  123  A    between atoms: _315  and  _316
REMARK  124  A    between atoms: _315  and  _318
REMARK  125  A    between atoms: _318  and  _319
REMARK  126  A    between atoms: _324  and  _326
REMARK  127  A    between atoms: _326  and  _327
REMARK  128  A    between atoms: _326  and  _329
REMARK  129  A    between atoms: _329  and  _330
REMARK  130  A    between atoms: _333  and  _335
REMARK  131  A    between atoms: _335  and  _336
REMARK  132  A    between atoms: _335  and  _338
REMARK  133  A    between atoms: _338  and  _339
REMARK  134  A    between atoms: _344  and  _345
REMARK  135  A    between atoms: _347  and  _349
REMARK  136  A    between atoms: _349  and  _350
REMARK  137  A    between atoms: _349  and  _352
REMARK  138  A    between atoms: _352  and  _353
REMARK  139  A    between atoms: _356  and  _358
REMARK  140  A    between atoms: _358  and  _359
REMARK  141  A    between atoms: _358  and  _361
REMARK  142  A    between atoms: _361  and  _362
REMARK  143  A    between atoms: _367  and  _368
REMARK  144  A    between atoms: _371  and  _372
REMARK  145  A    between atoms: _377  and  _379
REMARK  146  A    between atoms: _379  and  _380
REMARK  147  A    between atoms: _379  and  _382
REMARK  148  A    between atoms: _382  and  _383
REMARK  149  A    between atoms: _388  and  _389
REMARK  150  A    between atoms: _391  and  _393
REMARK  151  A    between atoms: _393  and  _394
REMARK  152  A    between atoms: _393  and  _396
REMARK  153  A    between atoms: _396  and  _397
REMARK  154  A    between atoms: _397  and  _398
REMARK  155  A    between atoms: _400  and  _402
REMARK  156  A    between atoms: _402  and  _403
REMARK  157  A    between atoms: _402  and  _405
REMARK  158  A    between atoms: _405  and  _406
REMARK  159  A    between atoms: _411  and  _412
REMARK  160  A    between atoms: _414  and  _416
REMARK  161  A    between atoms: _416  and  _417
REMARK  162  A    between atoms: _416  and  _419
REMARK  163  A    between atoms: _419  and  _420
REMARK  164  A    between atoms: _423  and  _425
REMARK  165  A    between atoms: _425  and  _426
REMARK  166  A    between atoms: _429  and  _431
REMARK  167  A    between atoms: _431  and  _432
REMARK  168  A    between atoms: _434  and  _436
REMARK  169  A    between atoms: _436  and  _437
REMARK  170  A    between atoms: _436  and  _439
REMARK  171  A    between atoms: _439  and  _440
REMARK  172  A    between atoms: _445  and  _446
REMARK  173  A    between atoms: _448  and  _450
REMARK  174  A    between atoms: _450  and  _451
REMARK  175  A    between atoms: _450  and  _453
REMARK  176  A    between atoms: _453  and  _454
REMARK  177  A    between atoms: _459  and  _461
REMARK  178  A    between atoms: _461  and  _462
REMARK  179  A    between atoms: _461  and  _464
REMARK  180  A    between atoms: _466  and  _468
REMARK  181  A    between atoms: _468  and  _469
REMARK  182  A    between atoms: _468  and  _471
REMARK  183  A    between atoms: _471  and  _472
REMARK  184  A    between atoms: _472  and  _473
REMARK  185  A    between atoms: _473  and  _474
REMARK  186  A    between atoms: _483  and  _485
REMARK  187  A    between atoms: _485  and  _486
REMARK  188  A    between atoms: _489  and  _491
REMARK  189  A    between atoms: _491  and  _492
REMARK  190  A    between atoms: _495  and  _497
REMARK  191  A    between atoms: _497  and  _498
REMARK  192  A    between atoms: _497  and  _500
REMARK  193  A    between atoms: _500  and  _501
REMARK  194  A    between atoms: _511  and  _513
REMARK  195  A    between atoms: _513  and  _514
REMARK  196  A    between atoms: _513  and  _516
REMARK  197  A    between atoms: _516  and  _517
REMARK  198  A    between atoms: _520  and  _522
REMARK  199  A    between atoms: _522  and  _523
REMARK  200  A    between atoms: _522  and  _525
REMARK  201  A    between atoms: _525  and  _526
REMARK  202  A    between atoms: _526  and  _527
REMARK  203  A    between atoms: _530  and  _532
REMARK  204  A    between atoms: _532  and  _533
REMARK  205  A    between atoms: _532  and  _535
REMARK  206  A    between atoms: _535  and  _536
REMARK  207  A    between atoms: _539  and  _541
REMARK  208  A    between atoms: _541  and  _542
REMARK  209  A    between atoms: _541  and  _544
REMARK  210  A    between atoms: _544  and  _545
REMARK  211  A    between atoms: _545  and  _546
REMARK  212  A    between atoms: _546  and  _547
REMARK  213  A    between atoms: _547  and  _548
REMARK  214  A    between atoms: _552  and  _554
REMARK  215  A    between atoms: _554  and  _555
REMARK  216  A    between atoms: _554  and  _557
REMARK  217  A    between atoms: _557  and  _558
REMARK  218  A    between atoms: _558  and  _559
REMARK  219  A    between atoms: _562  and  _564
REMARK  220  A    between atoms: _564  and  _565
REMARK  221  A    between atoms: _564  and  _567
REMARK  222  A    between atoms: _567  and  _568
REMARK  223  A    between atoms: _574  and  _576
REMARK  224  A    between atoms: _576  and  _577
REMARK  225  A    between atoms: _576  and  _579
REMARK  226  A    between atoms: _579  and  _580
REMARK  227  A    between atoms: _586  and  _588
REMARK  228  A    between atoms: _588  and  _589
REMARK  229  A    between atoms: _588  and  _591
REMARK  230  A    between atoms: _591  and  _592
REMARK  231  A    between atoms: _592  and  _593
REMARK  232  A    between atoms: _596  and  _598
REMARK  233  A    between atoms: _598  and  _599
REMARK  234  A    between atoms: _598  and  _601
REMARK  235  A    between atoms: _604  and  _606
REMARK  236  A    between atoms: _606  and  _607
REMARK  237  A    between atoms: _610  and  _612
REMARK  238  A    between atoms: _612  and  _613
REMARK  239  A    between atoms: _612  and  _615
REMARK  240  A    between atoms: _615  and  _616
REMARK  241  A    between atoms: _619  and  _621
REMARK  242  A    between atoms: _621  and  _622
REMARK  243  A    between atoms: _621  and  _624
REMARK  244  A    between atoms: _627  and  _629
REMARK  245  A    between atoms: _629  and  _630
REMARK  246  A    between atoms: _629  and  _632
REMARK  247  A    between atoms: _632  and  _633
REMARK                            x       y       z     vdW  Elec       q    Type
REMARK                         _______ _______ _______ _____ _____    ______ ____
ROOT
ATOM      1  CA  MET A   3      11.716   0.989   6.044  0.00  0.00    +0.149 C 
ENDROOT
BRANCH   1   4
ATOM      2  C   PHE A   2      11.509   1.959   8.246  0.00  0.00    +0.241 C 
ATOM      3  O   PHE A   2      11.636   3.045   7.803  0.00  0.00    -0.273 OA
ATOM      4  N   MET A   3      11.568   0.871   7.481  0.00  0.00    -0.297 N 
ATOM      5  H   MET A   3      11.507  -0.071   7.918  0.00  0.00    +0.150 HD
BRANCH   2   6
ATOM      6  CA  PHE A   2      11.380   1.798   9.778  0.00  0.00    +0.153 C 
BRANCH   6   8
ATOM      7  C   ALA A   1       9.050   1.128   9.702  0.00  0.00    +0.238 C 
ATOM      8  N   PHE A   2      10.294   0.847  10.055  0.00  0.00    -0.297 N 
ATOM      9  H   PHE A   2      10.505  -0.053  10.532  0.00  0.00    +0.150 HD
ATOM     10  O   ALA A   1       8.761   2.122   9.094  0.00  0.00    -0.274 OA
BRANCH   7  11
ATOM     11  CA  ALA A   1       7.981   0.090  10.036  0.00  0.00    +0.145 C 
ATOM     12  CB  ALA A   1       7.460   0.295  11.419  0.00  0.00    +0.028 C 
BRANCH  11  13
ATOM     13  N   ALA A   1       8.522  -1.255   9.873  0.00  0.00    -0.238 NA
ATOM     14  H   ALA A   1       8.496  -1.913  10.678  0.00  0.00    +0.142 HD
ENDBRANCH  11  13
ENDBRANCH   7  11
ENDBRANCH   6   8
BRANCH   6  15
ATOM     15  CB  PHE A   2      12.719   1.409  10.436  0.00  0.00    +0.055 C 
BRANCH  15  16
ATOM     16  CG  PHE A   2      13.902   2.215   9.953  0.00  0.00    -0.020 A 
ATOM     17  CD2 PHE A   2      14.178   3.460  10.529  0.00  0.00    -0.004 A 
ATOM     18  CE2 PHE A   2      15.247   4.228  10.121  0.00  0.00    -0.000 A 
ATOM     19  CZ  PHE A   2      16.009   3.762   9.063  0.00  0.00    -0.000 A 
ATOM     20  CE1 PHE A   2      15.705   2.568   8.461  0.00  0.00    -0.000 A 
ATOM     21  CD1 PHE A   2      14.680   1.780   8.927  0.00  0.00    -0.004 A 
ENDBRANCH  15  16
ENDBRANCH   6  15
ENDBRANCH   2   6
ENDBRANCH   1   4
BRANCH   1  22
ATOM     22  C   MET A   3      10.558   1.732   5.410  0.00  0.00    +0.241 C 
ATOM     23  N   VAL A   4       9.386   1.548   5.974  0.00  0.00    -0.297 N 
ATOM     24  H   VAL A   4       9.290   0.916   6.794  0.00  0.00    +0.150 HD
ATOM     25  O   MET A   3      10.721   2.405   4.447  0.00  0.00    -0.273 OA
BRANCH  23  26
ATOM     26  CA  VAL A   4       8.226   2.238   5.438  0.00  0.00    +0.149 C 
BRANCH  26  27
ATOM     27  C   VAL A   4       8.298   3.744   5.739  0.00  0.00    +0.241 C 
ATOM     28  N   CYS A   5       8.664   4.113   6.961  0.00  0.00    -0.296 N 
ATOM     29  H   CYS A   5       8.762   3.393   7.705  0.00  0.00    +0.150 HD
ATOM     30  O   VAL A   4       8.028   4.557   4.874  0.00  0.00    -0.273 OA
BRANCH  28  31
ATOM     31  CA  CYS A   5       8.936   5.538   7.283  0.00  0.00    +0.160 C 
BRANCH  31  32
ATOM     32  C   CYS A   5      10.020   6.092   6.379  0.00  0.00    +0.242 C 
ATOM     33  O   CYS A   5      10.012   7.269   6.047  0.00  0.00    -0.273 OA
ATOM     34  N   ALA A   6      10.941   5.227   5.999  0.00  0.00    -0.298 N 
ATOM     35  H   ALA A   6      10.873   4.231   6.289  0.00  0.00    +0.150 HD
BRANCH  34  36
ATOM     36  CA  ALA A   6      12.041   5.669   5.181  0.00  0.00    +0.137 C 
ATOM     37  CB  ALA A   6      13.252   4.747   5.286  0.00  0.00    +0.030 C 
BRANCH  36  38
ATOM     38  C   ALA A   6      11.708   5.913   3.720  0.00  0.00    +0.227 C 
ATOM     39  O   ALA A   6      12.526   6.464   2.999  0.00  0.00    -0.286 OA
ENDBRANCH  36  38
ENDBRANCH  34  36
ENDBRANCH  31  32
BRANCH  31  40
ATOM     40  CB  CYS A   5       9.360   5.752   8.728  0.00  0.00    +0.098 C 
ATOM     41  SG  CYS A   5       7.967   5.452   9.894  0.00  0.00    -0.080 S 
ENDBRANCH  31  40
ENDBRANCH  28  31
ENDBRANCH  26  27
BRANCH  26  42
ATOM     42  CB  VAL A   4       6.952   1.608   6.025  0.00  0.00    +0.027 C 
ATOM     43  CG2 VAL A   4       5.756   2.433   5.695  0.00  0.00    +0.002 C 
ATOM     44  CG1 VAL A   4       6.754   0.185   5.529  0.00  0.00    +0.002 C 
ENDBRANCH  26  42
ENDBRANCH  23  26
ENDBRANCH   1  22
BRANCH   1  45
ATOM     45  CB  MET A   3      12.009  -0.333   5.327  0.00  0.00    +0.041 C 
BRANCH  45  46
ATOM     46  CG  MET A   3      10.803  -1.203   5.003  0.00  0.00    +0.060 C 
BRANCH  46  47
ATOM     47  SD  MET A   3      11.304  -2.663   4.069  0.00  0.00    -0.139 S 
ATOM     48  CE  MET A   3      11.874  -3.734   5.372  0.00  0.00    +0.069 C 
ENDBRANCH  46  47
ENDBRANCH  45  46
ENDBRANCH   1  45
TORSDOF 19
REMARK  Name = ../refined-set-2016/4x5y/4x5y_pocket.pdb
REMARK  247 active torsions:
REMARK  status: ('A' for Active; 'I' for Inactive)
REMARK    1  A    between atoms: _1  and  _3
REMARK    2  A    between atoms: _3  and  _4
REMARK    3  A    between atoms: _3  and  _6
REMARK    4  A    between atoms: _6  and  _7
REMARK    5  A    between atoms: _10  and  _12
REMARK    6  A    between atoms: _12  and  _13
REMARK    7  A    between atoms: _12  and  _15
REMARK    8  A    between atoms: _15  and  _16
REMARK    9  A    between atoms: _18  and  _20
REMARK   10  A    between atoms: _20  and  _21
REMARK   11  A    between atoms: _20  and  _23
REMARK   12  A    between atoms: _23  and  _24
REMARK   13  A    between atoms: _26  and  _28
REMARK   14  A    between atoms: _28  and  _29
REMARK   15  A    between atoms: _31  and  _33
REMARK   16  A    between atoms: _33  and  _34
REMARK   17  A    between atoms: _37  and  _39
REMARK   18  A    between atoms: _39  and  _40
REMARK   19  A    between atoms: _39  and  _42
REMARK   20  A    between atoms: _42  and  _43
REMARK   21  A    between atoms: _49  and  _51
REMARK   22  A    between atoms: _51  and  _52
REMARK   23  A    between atoms: _51  and  _54
REMARK   24  A    between atoms: _54  and  _55
REMARK   25  A    between atoms: _58  and  _60
REMARK   26  A    between atoms: _60  and  _61
REMARK   27  A    between atoms: _64  and  _66
REMARK   28  A    between atoms: _66  and  _67
REMARK   29  A    between atoms: _66  and  _69
REMARK   30  A    between atoms: _69  and  _70
REMARK   31  A    between atoms: _73  and  _75
REMARK   32  A    between atoms: _75  and  _76
REMARK   33  A    between atoms: _75  and  _78
REMARK   34  A    between atoms: _78  and  _79
REMARK   35  A    between atoms: _81  and  _83
REMARK   36  A    between atoms: _83  and  _84
REMARK   37  A    between atoms: _83  and  _86
REMARK   38  A    between atoms: _86  and  _87
REMARK   39  A    between atoms: _87  and  _88
REMARK   40  A    between atoms: _91  and  _93
REMARK   41  A    between atoms: _93  and  _94
REMARK   42  A    between atoms: _93  and  _96
REMARK   43  A    between atoms: _96  and  _97
REMARK   44  A    between atoms: _100  and  _102
REMARK   45  A    between atoms: _102  and  _103
REMARK   46  A    between atoms: _102  and  _105
REMARK   47  A    between atoms: _105  and  _106
REMARK   48  A    between atoms: _111  and  _113
REMARK   49  A    between atoms: _113  and  _114
REMARK   50  A    between atoms: _117  and  _119
REMARK   51  A    between atoms: _119  and  _120
REMARK   52  A    between atoms: _119  and  _122
REMARK   53  A    between atoms: _122  and  _123
REMARK   54  A    between atoms: _133  and  _135
REMARK   55  A    between atoms: _135  and  _136
REMARK   56  A    between atoms: _135  and  _138
REMARK   57  A    between atoms: _138  and  _139
REMARK   58  A    between atoms: _142  and  _144
REMARK   59  A    between atoms: _144  and  _145
REMARK   60  A    between atoms: _144  and  _147
REMARK   61  A    between atoms: _147  and  _148
REMARK   62  A    between atoms: _158  and  _160
REMARK   63  A    between atoms: _160  and  _161
REMARK   64  A    between atoms: _160  and  _163
REMARK   65  A    between atoms: _163  and  _164
REMARK   66  A    between atoms: _169  and  _171
REMARK   67  A    between atoms: _171  and  _172
REMARK   68  A    between atoms: _174  and  _176
REMARK   69  A    between atoms: _176  and  _177
REMARK   70  A    between atoms: _176  and  _179
REMARK   71  A    between atoms: _179  and  _180
REMARK   72  A    between atoms: _190  and  _192
REMARK   73  A    between atoms: _192  and  _193
REMARK   74  A    between atoms: _192  and  _195
REMARK   75  A    between atoms: _195  and  _196
REMARK   76  A    between atoms: _199  and  _201
REMARK   77  A    between atoms: _201  and  _202
REMARK   78  A    between atoms: _201  and  _204
REMARK   79  A    between atoms: _204  and  _205
REMARK   80  A    between atoms: _205  and  _206
REMARK   81  A    between atoms: _208  and  _210
REMARK   82  A    between atoms: _210  and  _211
REMARK   83  A    between atoms: _210  and  _213
REMARK   84  A    between atoms: _215  and  _217
REMARK   85  A    between atoms: _217  and  _218
REMARK   86  A    between atoms: _221  and  _223
REMARK   87  A    between atoms: _223  and  _224
REMARK   88  A    between atoms: _223  and  _226
REMARK   89  A    between atoms: _226  and  _227
REMARK   90  A    between atoms: _233  and  _235
REMARK   91  A    between atoms: _235  and  _236
REMARK   92  A    between atoms: _235  and  _238
REMARK   93  A    between atoms: _238  and  _239
REMARK   94  A    between atoms: _239  and  _240
REMARK   95  A    between atoms: _242  and  _244
REMARK   96  A    between atoms: _244  and  _245
REMARK   97  A    between atoms: _244  and  _247
REMARK   98  A    between atoms: _250  and  _252
REMARK   99  A    between atoms: _252  and  _253
REMARK  100  A    between atoms: _252  and  _255
REMARK  101  A    between atoms: _257  and  _259
REMARK  102  A    between atoms: _259  and  _260
REMARK  103  A    between atoms: _263  and  _265
REMARK  104  A    between atoms: _265  and  _266
REMARK  105  A    between atoms: _265  and  _268
REMARK  106  A    between atoms: _268  and  _269
REMARK  107  A    between atoms: _274  and  _275
REMARK  108  A    between atoms: _278  and  _279
REMARK  109  A    between atoms: _284  and  _286
REMARK  110  A    between atoms: _286  and  _287
REMARK  111  A    between atoms: _286  and  _289
REMARK  112  A    between atoms: _289  and  _290
REMARK  113  A    between atoms: _290  and  _291
REMARK  114  A    between atoms: _293  and  _295
REMARK  115  A    between atoms: _295  and  _296
REMARK  116  A    between atoms: _299  and  _301
REMARK  117  A    between atoms: _301  and  _302
REMARK  118  A    between atoms: _301  and  _304
REMARK  119  A    between atoms: _304  and  _305
REMARK  120  A    between atoms: _308  and  _310
REMARK  121  A    between atoms: _310  and  _311
REMARK  122  A    between atoms: _313  and  _315
REMARK  123  A    between atoms: _315  and  _316
REMARK  124  A    between atoms: _315  and  _318
REMARK  125  A    between atoms: _318  and  _319
REMARK  126  A    between atoms: _324  and  _326
REMARK  127  A    between atoms: _326  and  _327
REMARK  128  A    between atoms: _326  and  _329
REMARK  129  A    between atoms: _329  and  _330
REMARK  130  A    between atoms: _333  and  _335
REMARK  131  A    between atoms: _335  and  _336
REMARK  132  A    between atoms: _335  and  _338
REMARK  133  A    between atoms: _338  and  _339
REMARK  134  A    between atoms: _344  and  _345
REMARK  135  A    between atoms: _347  and  _349
REMARK  136  A    between atoms: _349  and  _350
REMARK  137  A    between atoms: _349  and  _352
REMARK  138  A    between atoms: _352  and  _353
REMARK  139  A    between atoms: _356  and  _358
REMARK  140  A    between atoms: _358  and  _359
REMARK  141  A    between atoms: _358  and  _361
REMARK  142  A    between atoms: _361  and  _362
REMARK  143  A    between atoms: _367  and  _368
REMARK  144  A    between atoms: _371  and  _372
REMARK  145  A    between atoms: _377  and  _379
REMARK  146  A    between atoms: _379  and  _380
REMARK  147  A    between atoms: _379  and  _382
REMARK  148  A    between atoms: _382  and  _383
REMARK  149  A    between atoms: _388  and  _389
REMARK  150  A    between atoms: _391  and  _393
REMARK  151  A    between atoms: _393  and  _394
REMARK  152  A    between atoms: _393  and  _396
REMARK  153  A    between atoms: _396  and  _397
REMARK  154  A    between atoms: _397  and  _398
REMARK  155  A    between atoms: _400  and  _402
REMARK  156  A    between atoms: _402  and  _403
REMARK  157  A    between atoms: _402  and  _405
REMARK  158  A    between atoms: _405  and  _406
REMARK  159  A    between atoms: _411  and  _412
REMARK  160  A    between atoms: _414  and  _416
REMARK  161  A    between atoms: _416  and  _417
REMARK  162  A    between atoms: _416  and  _419
REMARK  163  A    between atoms: _419  and  _420
REMARK  164  A    between atoms: _423  and  _425
REMARK  165  A    between atoms: _425  and  _426
REMARK  166  A    between atoms: _429  and  _431
REMARK  167  A    between atoms: _431  and  _432
REMARK  168  A    between atoms: _434  and  _436
REMARK  169  A    between atoms: _436  and  _437
REMARK  170  A    between atoms: _436  and  _439
REMARK  171  A    between atoms: _439  and  _440
REMARK  172  A    between atoms: _445  and  _446
REMARK  173  A    between atoms: _448  and  _450
REMARK  174  A    between atoms: _450  and  _451
REMARK  175  A    between atoms: _450  and  _453
REMARK  176  A    between atoms: _453  and  _454
REMARK  177  A    between atoms: _459  and  _461
REMARK  178  A    between atoms: _461  and  _462
REMARK  179  A    between atoms: _461  and  _464
REMARK  180  A    between atoms: _466  and  _468
REMARK  181  A    between atoms: _468  and  _469
REMARK  182  A    between atoms: _468  and  _471
REMARK  183  A    between atoms: _471  and  _472
REMARK  184  A    between atoms: _472  and  _473
REMARK  185  A    between atoms: _473  and  _474
REMARK  186  A    between atoms: _483  and  _485
REMARK  187  A    between atoms: _485  and  _486
REMARK  188  A    between atoms: _489  and  _491
REMARK  189  A    between atoms: _491  and  _492
REMARK  190  A    between atoms: _495  and  _497
REMARK  191  A    between atoms: _497  and  _498
REMARK  192  A    between atoms: _497  and  _500
REMARK  193  A    between atoms: _500  and  _501
REMARK  194  A    between atoms: _511  and  _513
REMARK  195  A    between atoms: _513  and  _514
REMARK  196  A    between atoms: _513  and  _516
REMARK  197  A    between atoms: _516  and  _517
REMARK  198  A    between atoms: _520  and  _522
REMARK  199  A    between atoms: _522  and  _523
REMARK  200  A    between atoms: _522  and  _525
REMARK  201  A    between atoms: _525  and  _526
REMARK  202  A    between atoms: _526  and  _527
REMARK  203  A    between atoms: _530  and  _532
REMARK  204  A    between atoms: _532  and  _533
REMARK  205  A    between atoms: _532  and  _535
REMARK  206  A    between atoms: _535  and  _536
REMARK  207  A    between atoms: _539  and  _541
REMARK  208  A    between atoms: _541  and  _542
REMARK  209  A    between atoms: _541  and  _544
REMARK  210  A    between atoms: _544  and  _545
REMARK  211  A    between atoms: _545  and  _546
REMARK  212  A    between atoms: _546  and  _547
REMARK  213  A    between atoms: _547  and  _548
REMARK  214  A    between atoms: _552  and  _554
REMARK  215  A    between atoms: _554  and  _555
REMARK  216  A    between atoms: _554  and  _557
REMARK  217  A    between atoms: _557  and  _558
REMARK  218  A    between atoms: _558  and  _559
REMARK  219  A    between atoms: _562  and  _564
REMARK  220  A    between atoms: _564  and  _565
REMARK  221  A    between atoms: _564  and  _567
REMARK  222  A    between atoms: _567  and  _568
REMARK  223  A    between atoms: _574  and  _576
REMARK  224  A    between atoms: _576  and  _577
REMARK  225  A    between atoms: _576  and  _579
REMARK  226  A    between atoms: _579  and  _580
REMARK  227  A    between atoms: _586  and  _588
REMARK  228  A    between atoms: _588  and  _589
REMARK  229  A    between atoms: _588  and  _591
REMARK  230  A    between atoms: _591  and  _592
REMARK  231  A    between atoms: _592  and  _593
REMARK  232  A    between atoms: _596  and  _598
REMARK  233  A    between atoms: _598  and  _599
REMARK  234  A    between atoms: _598  and  _601
REMARK  235  A    between atoms: _604  and  _606
REMARK  236  A    between atoms: _606  and  _607
REMARK  237  A    between atoms: _610  and  _612
REMARK  238  A    between atoms: _612  and  _613
REMARK  239  A    between atoms: _612  and  _615
REMARK  240  A    between atoms: _615  and  _616
REMARK  241  A    between atoms: _619  and  _621
REMARK  242  A    between atoms: _621  and  _622
REMARK  243  A    between atoms: _621  and  _624
REMARK  244  A    between atoms: _627  and  _629
REMARK  245  A    between atoms: _629  and  _630
REMARK  246  A    between atoms: _629  and  _632
REMARK  247  A    between atoms: _632  and  _633
REMARK                            x       y       z     vdW  Elec       q    Type
REMARK                         _______ _______ _______ _____ _____    ______ ____
ROOT
ATOM      1  C   MET A   3       7.040   8.536  13.734  0.00  0.00    +0.241 C 
ATOM      2  N   ALA A   4       6.735   7.227  13.710  0.00  0.00    -0.297 N 
ATOM      3  H   ALA A   4       7.078   6.615  14.478  0.00  0.00    +0.150 HD
ATOM      4  O   MET A   3       6.634   9.350  12.891  0.00  0.00    -0.273 OA
ENDROOT
BRANCH   2   5
ATOM      5  CA  ALA A   4       5.947   6.645  12.653  0.00  0.00    +0.149 C 
ATOM      6  CB  ALA A   4       5.940   5.106  12.739  0.00  0.00    +0.031 C 
BRANCH   5   7
ATOM      7  C   ALA A   4       4.536   7.145  12.783  0.00  0.00    +0.241 C 
ATOM      8  N   LEU A   5       4.078   7.261  14.025  0.00  0.00    -0.297 N 
ATOM      9  H   LEU A   5       4.676   6.990  14.832  0.00  0.00    +0.150 HD
ATOM     10  O   ALA A   4       3.859   7.340  11.779  0.00  0.00    -0.273 OA
BRANCH   8  11
ATOM     11  CA  LEU A   5       2.702   7.782  14.252  0.00  0.00    +0.149 C 
BRANCH  11  12
ATOM     12  C   LEU A   5       2.599   9.262  13.813  0.00  0.00    +0.241 C 
ATOM     13  N   GLY A   6       3.627  10.077  14.074  0.00  0.00    -0.295 N 
ATOM     14  H   GLY A   6       4.412   9.738  14.666  0.00  0.00    +0.150 HD
ATOM     15  O   LEU A   5       1.629   9.678  13.176  0.00  0.00    -0.273 OA
BRANCH  13  16
ATOM     16  CA  GLY A   6       3.662  11.425  13.544  0.00  0.00    +0.176 C 
BRANCH  16  17
ATOM     17  C   GLY A   6       3.691  11.458  12.025  0.00  0.00    +0.243 C 
ATOM     18  O   GLY A   6       3.047  12.261  11.413  0.00  0.00    -0.273 OA
ATOM     19  N   ASN A   7       4.512  10.608  11.388  0.00  0.00    -0.298 N 
ATOM     20  H   ASN A   7       5.141   9.997  11.947  0.00  0.00    +0.150 HD
BRANCH  19  21
ATOM     21  CA  ASN A   7       4.546  10.517   9.903  0.00  0.00    +0.146 C 
BRANCH  21  22
ATOM     22  C   ASN A   7       3.182  10.206   9.343  0.00  0.00    +0.227 C 
ATOM     23  O   ASN A   7       2.708  10.866   8.408  0.00  0.00    -0.286 OA
ENDBRANCH  21  22
BRANCH  21  24
ATOM     24  CB  ASN A   7       5.559   9.429   9.515  0.00  0.00    +0.112 C 
BRANCH  24  25
ATOM     25  CG  ASN A   7       5.979   9.464   8.055  0.00  0.00    +0.222 C 
ATOM     26  ND2 ASN A   7       7.131   8.895   7.800  0.00  0.00    -0.329 N 
ATOM     27 HD21 ASN A   7       7.676   8.456   8.569  0.00  0.00    +0.145 HD
ATOM     28 HD22 ASN A   7       7.501   8.883   6.828  0.00  0.00    +0.145 HD
ATOM     29  OD1 ASN A   7       5.297  10.002   7.155  0.00  0.00    -0.275 OA
ENDBRANCH  24  25
ENDBRANCH  21  24
ENDBRANCH  19  21
ENDBRANCH  16  17
ENDBRANCH  13  16
ENDBRANCH  11  12
BRANCH  11  30
ATOM     30  CB  LEU A   5       2.282   7.552  15.685  0.00  0.00    +0.029 C 
BRANCH  30  31
ATOM     31  CG  LEU A   5       2.032   6.087  16.119  0.00  0.00    +0.002 C 
ATOM     32  CD2 LEU A   5       2.144   5.934  17.621  0.00  0.00    +0.000 C 
ATOM     33  CD1 LEU A   5       0.704   5.515  15.593  0.00  0.00    +0.000 C 
ENDBRANCH  30  31
ENDBRANCH  11  30
ENDBRANCH   8  11
ENDBRANCH   5   7
ENDBRANCH   2   5
BRANCH   1  34
ATOM     34  CA  MET A   3       7.852   9.031  14.937  0.00  0.00    +0.149 C 
BRANCH  34  37
ATOM     35  C   PRO A   2       6.474   8.271  16.779  0.00  0.00    +0.241 C 
ATOM     36  O   PRO A   2       5.497   8.865  16.311  0.00  0.00    -0.273 OA
ATOM     37  N   MET A   3       7.665   8.266  16.156  0.00  0.00    -0.297 N 
ATOM     38  H   MET A   3       8.454   7.713  16.548  0.00  0.00    +0.150 HD
BRANCH  35  44
ATOM     39  C   TYR A   1       6.579   5.324  17.160  0.00  0.00    +0.242 C 
ATOM     40  N   PRO A   2       6.867   6.191  18.149  0.00  0.00    -0.272 N 
ATOM     41  CD  PRO A   2       7.675   5.922  19.358  0.00  0.00    +0.094 C 
ATOM     42  CG  PRO A   2       7.437   7.167  20.229  0.00  0.00    +0.024 C 
ATOM     43  CB  PRO A   2       7.056   8.261  19.286  0.00  0.00    +0.031 C 
ATOM     44  CA  PRO A   2       6.342   7.556  18.105  0.00  0.00    +0.152 C 
ATOM     45  O   TYR A   1       5.848   5.631  16.216  0.00  0.00    -0.273 OA
BRANCH  39  46
ATOM     46  CA  TYR A   1       7.201   3.905  17.291  0.00  0.00    +0.149 C 
BRANCH  46  47
ATOM     47  N   TYR A   1       6.476   3.160  18.326  0.00  0.00    -0.238 NA
ATOM     48  H   TYR A   1       5.436   3.135  18.317  0.00  0.00    +0.142 HD
ENDBRANCH  46  47
BRANCH  46  49
ATOM     49  CB  TYR A   1       7.171   3.107  15.956  0.00  0.00    +0.053 C 
BRANCH  49  50
ATOM     50  CG  TYR A   1       8.246   3.468  14.960  0.00  0.00    -0.020 A 
ATOM     51  CD2 TYR A   1       8.888   4.705  14.970  0.00  0.00    -0.001 A 
ATOM     52  CE2 TYR A   1       9.858   5.001  14.037  0.00  0.00    +0.036 A 
ATOM     53  CZ  TYR A   1      10.200   4.073  13.112  0.00  0.00    +0.134 A 
ATOM     54  CE1 TYR A   1       9.540   2.856  13.041  0.00  0.00    +0.036 A 
ATOM     55  CD1 TYR A   1       8.567   2.560  13.986  0.00  0.00    -0.001 A 
BRANCH  53  56
ATOM     56  OH  TYR A   1      11.131   4.413  12.126  0.00  0.00    -0.506 OA
ATOM     57  HH  TYR A   1      11.508   5.307  12.324  0.00  0.00    +0.292 HD
ENDBRANCH  53  56
ENDBRANCH  49  50
ENDBRANCH  46  49
ENDBRANCH  39  46
ENDBRANCH  35  44
ENDBRANCH  34  37
BRANCH  34  58
ATOM     58  CB  MET A   3       9.331   9.154  14.604  0.00  0.00    +0.041 C 
BRANCH  58  59
ATOM     59  CG  MET A   3      10.054  10.115  15.553  0.00  0.00    +0.060 C 
BRANCH  59  60
ATOM     60  SD  MET A   3      11.809  10.253  15.232  0.00  0.00    -0.139 S 
ATOM     61  CE  MET A   3      12.419   8.681  15.857  0.00  0.00    +0.069 C 
ENDBRANCH  59  60
ENDBRANCH  58  59
ENDBRANCH  34  58
ENDBRANCH   1  34
TORSDOF 23
REMARK  Name = ../refined-set-2016/4x5y/4x5y_pocket.pdb
REMARK  247 active torsions:
REMARK  status: ('A' for Active; 'I' for Inactive)
REMARK    1  A    between atoms: _1  and  _3
REMARK    2  A    between atoms: _3  and  _4
REMARK    3  A    between atoms: _3  and  _6
REMARK    4  A    between atoms: _6  and  _7
REMARK    5  A    between atoms: _10  and  _12
REMARK    6  A    between atoms: _12  and  _13
REMARK    7  A    between atoms: _12  and  _15
REMARK    8  A    between atoms: _15  and  _16
REMARK    9  A    between atoms: _18  and  _20
REMARK   10  A    between atoms: _20  and  _21
REMARK   11  A    between atoms: _20  and  _23
REMARK   12  A    between atoms: _23  and  _24
REMARK   13  A    between atoms: _26  and  _28
REMARK   14  A    between atoms: _28  and  _29
REMARK   15  A    between atoms: _31  and  _33
REMARK   16  A    between atoms: _33  and  _34
REMARK   17  A    between atoms: _37  and  _39
REMARK   18  A    between atoms: _39  and  _40
REMARK   19  A    between atoms: _39  and  _42
REMARK   20  A    between atoms: _42  and  _43
REMARK   21  A    between atoms: _49  and  _51
REMARK   22  A    between atoms: _51  and  _52
REMARK   23  A    between atoms: _51  and  _54
REMARK   24  A    between atoms: _54  and  _55
REMARK   25  A    between atoms: _58  and  _60
REMARK   26  A    between atoms: _60  and  _61
REMARK   27  A    between atoms: _64  and  _66
REMARK   28  A    between atoms: _66  and  _67
REMARK   29  A    between atoms: _66  and  _69
REMARK   30  A    between atoms: _69  and  _70
REMARK   31  A    between atoms: _73  and  _75
REMARK   32  A    between atoms: _75  and  _76
REMARK   33  A    between atoms: _75  and  _78
REMARK   34  A    between atoms: _78  and  _79
REMARK   35  A    between atoms: _81  and  _83
REMARK   36  A    between atoms: _83  and  _84
REMARK   37  A    between atoms: _83  and  _86
REMARK   38  A    between atoms: _86  and  _87
REMARK   39  A    between atoms: _87  and  _88
REMARK   40  A    between atoms: _91  and  _93
REMARK   41  A    between atoms: _93  and  _94
REMARK   42  A    between atoms: _93  and  _96
REMARK   43  A    between atoms: _96  and  _97
REMARK   44  A    between atoms: _100  and  _102
REMARK   45  A    between atoms: _102  and  _103
REMARK   46  A    between atoms: _102  and  _105
REMARK   47  A    between atoms: _105  and  _106
REMARK   48  A    between atoms: _111  and  _113
REMARK   49  A    between atoms: _113  and  _114
REMARK   50  A    between atoms: _117  and  _119
REMARK   51  A    between atoms: _119  and  _120
REMARK   52  A    between atoms: _119  and  _122
REMARK   53  A    between atoms: _122  and  _123
REMARK   54  A    between atoms: _133  and  _135
REMARK   55  A    between atoms: _135  and  _136
REMARK   56  A    between atoms: _135  and  _138
REMARK   57  A    between atoms: _138  and  _139
REMARK   58  A    between atoms: _142  and  _144
REMARK   59  A    between atoms: _144  and  _145
REMARK   60  A    between atoms: _144  and  _147
REMARK   61  A    between atoms: _147  and  _148
REMARK   62  A    between atoms: _158  and  _160
REMARK   63  A    between atoms: _160  and  _161
REMARK   64  A    between atoms: _160  and  _163
REMARK   65  A    between atoms: _163  and  _164
REMARK   66  A    between atoms: _169  and  _171
REMARK   67  A    between atoms: _171  and  _172
REMARK   68  A    between atoms: _174  and  _176
REMARK   69  A    between atoms: _176  and  _177
REMARK   70  A    between atoms: _176  and  _179
REMARK   71  A    between atoms: _179  and  _180
REMARK   72  A    between atoms: _190  and  _192
REMARK   73  A    between atoms: _192  and  _193
REMARK   74  A    between atoms: _192  and  _195
REMARK   75  A    between atoms: _195  and  _196
REMARK   76  A    between atoms: _199  and  _201
REMARK   77  A    between atoms: _201  and  _202
REMARK   78  A    between atoms: _201  and  _204
REMARK   79  A    between atoms: _204  and  _205
REMARK   80  A    between atoms: _205  and  _206
REMARK   81  A    between atoms: _208  and  _210
REMARK   82  A    between atoms: _210  and  _211
REMARK   83  A    between atoms: _210  and  _213
REMARK   84  A    between atoms: _215  and  _217
REMARK   85  A    between atoms: _217  and  _218
REMARK   86  A    between atoms: _221  and  _223
REMARK   87  A    between atoms: _223  and  _224
REMARK   88  A    between atoms: _223  and  _226
REMARK   89  A    between atoms: _226  and  _227
REMARK   90  A    between atoms: _233  and  _235
REMARK   91  A    between atoms: _235  and  _236
REMARK   92  A    between atoms: _235  and  _238
REMARK   93  A    between atoms: _238  and  _239
REMARK   94  A    between atoms: _239  and  _240
REMARK   95  A    between atoms: _242  and  _244
REMARK   96  A    between atoms: _244  and  _245
REMARK   97  A    between atoms: _244  and  _247
REMARK   98  A    between atoms: _250  and  _252
REMARK   99  A    between atoms: _252  and  _253
REMARK  100  A    between atoms: _252  and  _255
REMARK  101  A    between atoms: _257  and  _259
REMARK  102  A    between atoms: _259  and  _260
REMARK  103  A    between atoms: _263  and  _265
REMARK  104  A    between atoms: _265  and  _266
REMARK  105  A    between atoms: _265  and  _268
REMARK  106  A    between atoms: _268  and  _269
REMARK  107  A    between atoms: _274  and  _275
REMARK  108  A    between atoms: _278  and  _279
REMARK  109  A    between atoms: _284  and  _286
REMARK  110  A    between atoms: _286  and  _287
REMARK  111  A    between atoms: _286  and  _289
REMARK  112  A    between atoms: _289  and  _290
REMARK  113  A    between atoms: _290  and  _291
REMARK  114  A    between atoms: _293  and  _295
REMARK  115  A    between atoms: _295  and  _296
REMARK  116  A    between atoms: _299  and  _301
REMARK  117  A    between atoms: _301  and  _302
REMARK  118  A    between atoms: _301  and  _304
REMARK  119  A    between atoms: _304  and  _305
REMARK  120  A    between atoms: _308  and  _310
REMARK  121  A    between atoms: _310  and  _311
REMARK  122  A    between atoms: _313  and  _315
REMARK  123  A    between atoms: _315  and  _316
REMARK  124  A    between atoms: _315  and  _318
REMARK  125  A    between atoms: _318  and  _319
REMARK  126  A    between atoms: _324  and  _326
REMARK  127  A    between atoms: _326  and  _327
REMARK  128  A    between atoms: _326  and  _329
REMARK  129  A    between atoms: _329  and  _330
REMARK  130  A    between atoms: _333  and  _335
REMARK  131  A    between atoms: _335  and  _336
REMARK  132  A    between atoms: _335  and  _338
REMARK  133  A    between atoms: _338  and  _339
REMARK  134  A    between atoms: _344  and  _345
REMARK  135  A    between atoms: _347  and  _349
REMARK  136  A    between atoms: _349  and  _350
REMARK  137  A    between atoms: _349  and  _352
REMARK  138  A    between atoms: _352  and  _353
REMARK  139  A    between atoms: _356  and  _358
REMARK  140  A    between atoms: _358  and  _359
REMARK  141  A    between atoms: _358  and  _361
REMARK  142  A    between atoms: _361  and  _362
REMARK  143  A    between atoms: _367  and  _368
REMARK  144  A    between atoms: _371  and  _372
REMARK  145  A    between atoms: _377  and  _379
REMARK  146  A    between atoms: _379  and  _380
REMARK  147  A    between atoms: _379  and  _382
REMARK  148  A    between atoms: _382  and  _383
REMARK  149  A    between atoms: _388  and  _389
REMARK  150  A    between atoms: _391  and  _393
REMARK  151  A    between atoms: _393  and  _394
REMARK  152  A    between atoms: _393  and  _396
REMARK  153  A    between atoms: _396  and  _397
REMARK  154  A    between atoms: _397  and  _398
REMARK  155  A    between atoms: _400  and  _402
REMARK  156  A    between atoms: _402  and  _403
REMARK  157  A    between atoms: _402  and  _405
REMARK  158  A    between atoms: _405  and  _406
REMARK  159  A    between atoms: _411  and  _412
REMARK  160  A    between atoms: _414  and  _416
REMARK  161  A    between atoms: _416  and  _417
REMARK  162  A    between atoms: _416  and  _419
REMARK  163  A    between atoms: _419  and  _420
REMARK  164  A    between atoms: _423  and  _425
REMARK  165  A    between atoms: _425  and  _426
REMARK  166  A    between atoms: _429  and  _431
REMARK  167  A    between atoms: _431  and  _432
REMARK  168  A    between atoms: _434  and  _436
REMARK  169  A    between atoms: _436  and  _437
REMARK  170  A    between atoms: _436  and  _439
REMARK  171  A    between atoms: _439  and  _440
REMARK  172  A    between atoms: _445  and  _446
REMARK  173  A    between atoms: _448  and  _450
REMARK  174  A    between atoms: _450  and  _451
REMARK  175  A    between atoms: _450  and  _453
REMARK  176  A    between atoms: _453  and  _454
REMARK  177  A    between atoms: _459  and  _461
REMARK  178  A    between atoms: _461  and  _462
REMARK  179  A    between atoms: _461  and  _464
REMARK  180  A    between atoms: _466  and  _468
REMARK  181  A    between atoms: _468  and  _469
REMARK  182  A    between atoms: _468  and  _471
REMARK  183  A    between atoms: _471  and  _472
REMARK  184  A    between atoms: _472  and  _473
REMARK  185  A    between atoms: _473  and  _474
REMARK  186  A    between atoms: _483  and  _485
REMARK  187  A    between atoms: _485  and  _486
REMARK  188  A    between atoms: _489  and  _491
REMARK  189  A    between atoms: _491  and  _492
REMARK  190  A    between atoms: _495  and  _497
REMARK  191  A    between atoms: _497  and  _498
REMARK  192  A    between atoms: _497  and  _500
REMARK  193  A    between atoms: _500  and  _501
REMARK  194  A    between atoms: _511  and  _513
REMARK  195  A    between atoms: _513  and  _514
REMARK  196  A    between atoms: _513  and  _516
REMARK  197  A    between atoms: _516  and  _517
REMARK  198  A    between atoms: _520  and  _522
REMARK  199  A    between atoms: _522  and  _523
REMARK  200  A    between atoms: _522  and  _525
REMARK  201  A    between atoms: _525  and  _526
REMARK  202  A    between atoms: _526  and  _527
REMARK  203  A    between atoms: _530  and  _532
REMARK  204  A    between atoms: _532  and  _533
REMARK  205  A    between atoms: _532  and  _535
REMARK  206  A    between atoms: _535  and  _536
REMARK  207  A    between atoms: _539  and  _541
REMARK  208  A    between atoms: _541  and  _542
REMARK  209  A    between atoms: _541  and  _544
REMARK  210  A    between atoms: _544  and  _545
REMARK  211  A    between atoms: _545  and  _546
REMARK  212  A    between atoms: _546  and  _547
REMARK  213  A    between atoms: _547  and  _548
REMARK  214  A    between atoms: _552  and  _554
REMARK  215  A    between atoms: _554  and  _555
REMARK  216  A    between atoms: _554  and  _557
REMARK  217  A    between atoms: _557  and  _558
REMARK  218  A    between atoms: _558  and  _559
REMARK  219  A    between atoms: _562  and  _564
REMARK  220  A    between atoms: _564  and  _565
REMARK  221  A    between atoms: _564  and  _567
REMARK  222  A    between atoms: _567  and  _568
REMARK  223  A    between atoms: _574  and  _576
REMARK  224  A    between atoms: _576  and  _577
REMARK  225  A    between atoms: _576  and  _579
REMARK  226  A    between atoms: _579  and  _580
REMARK  227  A    between atoms: _586  and  _588
REMARK  228  A    between atoms: _588  and  _589
REMARK  229  A    between atoms: _588  and  _591
REMARK  230  A    between atoms: _591  and  _592
REMARK  231  A    between atoms: _592  and  _593
REMARK  232  A    between atoms: _596  and  _598
REMARK  233  A    between atoms: _598  and  _599
REMARK  234  A    between atoms: _598  and  _601
REMARK  235  A    between atoms: _604  and  _606
REMARK  236  A    between atoms: _606  and  _607
REMARK  237  A    between atoms: _610  and  _612
REMARK  238  A    between atoms: _612  and  _613
REMARK  239  A    between atoms: _612  and  _615
REMARK  240  A    between atoms: _615  and  _616
REMARK  241  A    between atoms: _619  and  _621
REMARK  242  A    between atoms: _621  and  _622
REMARK  243  A    between atoms: _621  and  _624
REMARK  244  A    between atoms: _627  and  _629
REMARK  245  A    between atoms: _629  and  _630
REMARK  246  A    between atoms: _629  and  _632
REMARK  247  A    between atoms: _632  and  _633
REMARK                            x       y       z     vdW  Elec       q    Type
REMARK                         _______ _______ _______ _____ _____    ______ ____
ROOT
ATOM      1  CA  ASP A   1       1.280  14.195   8.627  0.00  0.00    +0.144 C 
ENDROOT
BRANCH   1   2
ATOM      2  N   ASP A   1       0.970  13.238   9.624  0.00  0.00    -0.239 NA
ATOM      3  H   ASP A   1       1.741  12.713  10.085  0.00  0.00    +0.142 HD
ENDBRANCH   1   2
BRANCH   1   4
ATOM      4  C   ASP A   1       0.673  13.771   7.270  0.00  0.00    +0.225 C 
ATOM      5  O   ASP A   1       0.184  14.636   6.500  0.00  0.00    -0.287 OA
ENDBRANCH   1   4
BRANCH   1   6
ATOM      6  CB  ASP A   1       2.789  14.325   8.470  0.00  0.00    +0.139 C 
BRANCH   6   7
ATOM      7  CG  ASP A   1       3.437  15.210   9.523  0.00  0.00    +0.367 C 
ATOM      8  OD2 ASP A   1       2.752  15.802  10.438  0.00  0.00    -0.246 OA
ATOM      9  OD1 ASP A   1       4.679  15.271   9.412  0.00  0.00    -0.246 OA
ENDBRANCH   6   7
ENDBRANCH   1   6
TORSDOF 4
REMARK  Name = ../refined-set-2016/4x5y/4x5y_pocket.pdb
REMARK  247 active torsions:
REMARK  status: ('A' for Active; 'I' for Inactive)
REMARK    1  A    between atoms: _1  and  _3
REMARK    2  A    between atoms: _3  and  _4
REMARK    3  A    between atoms: _3  and  _6
REMARK    4  A    between atoms: _6  and  _7
REMARK    5  A    between atoms: _10  and  _12
REMARK    6  A    between atoms: _12  and  _13
REMARK    7  A    between atoms: _12  and  _15
REMARK    8  A    between atoms: _15  and  _16
REMARK    9  A    between atoms: _18  and  _20
REMARK   10  A    between atoms: _20  and  _21
REMARK   11  A    between atoms: _20  and  _23
REMARK   12  A    between atoms: _23  and  _24
REMARK   13  A    between atoms: _26  and  _28
REMARK   14  A    between atoms: _28  and  _29
REMARK   15  A    between atoms: _31  and  _33
REMARK   16  A    between atoms: _33  and  _34
REMARK   17  A    between atoms: _37  and  _39
REMARK   18  A    between atoms: _39  and  _40
REMARK   19  A    between atoms: _39  and  _42
REMARK   20  A    between atoms: _42  and  _43
REMARK   21  A    between atoms: _49  and  _51
REMARK   22  A    between atoms: _51  and  _52
REMARK   23  A    between atoms: _51  and  _54
REMARK   24  A    between atoms: _54  and  _55
REMARK   25  A    between atoms: _58  and  _60
REMARK   26  A    between atoms: _60  and  _61
REMARK   27  A    between atoms: _64  and  _66
REMARK   28  A    between atoms: _66  and  _67
REMARK   29  A    between atoms: _66  and  _69
REMARK   30  A    between atoms: _69  and  _70
REMARK   31  A    between atoms: _73  and  _75
REMARK   32  A    between atoms: _75  and  _76
REMARK   33  A    between atoms: _75  and  _78
REMARK   34  A    between atoms: _78  and  _79
REMARK   35  A    between atoms: _81  and  _83
REMARK   36  A    between atoms: _83  and  _84
REMARK   37  A    between atoms: _83  and  _86
REMARK   38  A    between atoms: _86  and  _87
REMARK   39  A    between atoms: _87  and  _88
REMARK   40  A    between atoms: _91  and  _93
REMARK   41  A    between atoms: _93  and  _94
REMARK   42  A    between atoms: _93  and  _96
REMARK   43  A    between atoms: _96  and  _97
REMARK   44  A    between atoms: _100  and  _102
REMARK   45  A    between atoms: _102  and  _103
REMARK   46  A    between atoms: _102  and  _105
REMARK   47  A    between atoms: _105  and  _106
REMARK   48  A    between atoms: _111  and  _113
REMARK   49  A    between atoms: _113  and  _114
REMARK   50  A    between atoms: _117  and  _119
REMARK   51  A    between atoms: _119  and  _120
REMARK   52  A    between atoms: _119  and  _122
REMARK   53  A    between atoms: _122  and  _123
REMARK   54  A    between atoms: _133  and  _135
REMARK   55  A    between atoms: _135  and  _136
REMARK   56  A    between atoms: _135  and  _138
REMARK   57  A    between atoms: _138  and  _139
REMARK   58  A    between atoms: _142  and  _144
REMARK   59  A    between atoms: _144  and  _145
REMARK   60  A    between atoms: _144  and  _147
REMARK   61  A    between atoms: _147  and  _148
REMARK   62  A    between atoms: _158  and  _160
REMARK   63  A    between atoms: _160  and  _161
REMARK   64  A    between atoms: _160  and  _163
REMARK   65  A    between atoms: _163  and  _164
REMARK   66  A    between atoms: _169  and  _171
REMARK   67  A    between atoms: _171  and  _172
REMARK   68  A    between atoms: _174  and  _176
REMARK   69  A    between atoms: _176  and  _177
REMARK   70  A    between atoms: _176  and  _179
REMARK   71  A    between atoms: _179  and  _180
REMARK   72  A    between atoms: _190  and  _192
REMARK   73  A    between atoms: _192  and  _193
REMARK   74  A    between atoms: _192  and  _195
REMARK   75  A    between atoms: _195  and  _196
REMARK   76  A    between atoms: _199  and  _201
REMARK   77  A    between atoms: _201  and  _202
REMARK   78  A    between atoms: _201  and  _204
REMARK   79  A    between atoms: _204  and  _205
REMARK   80  A    between atoms: _205  and  _206
REMARK   81  A    between atoms: _208  and  _210
REMARK   82  A    between atoms: _210  and  _211
REMARK   83  A    between atoms: _210  and  _213
REMARK   84  A    between atoms: _215  and  _217
REMARK   85  A    between atoms: _217  and  _218
REMARK   86  A    between atoms: _221  and  _223
REMARK   87  A    between atoms: _223  and  _224
REMARK   88  A    between atoms: _223  and  _226
REMARK   89  A    between atoms: _226  and  _227
REMARK   90  A    between atoms: _233  and  _235
REMARK   91  A    between atoms: _235  and  _236
REMARK   92  A    between atoms: _235  and  _238
REMARK   93  A    between atoms: _238  and  _239
REMARK   94  A    between atoms: _239  and  _240
REMARK   95  A    between atoms: _242  and  _244
REMARK   96  A    between atoms: _244  and  _245
REMARK   97  A    between atoms: _244  and  _247
REMARK   98  A    between atoms: _250  and  _252
REMARK   99  A    between atoms: _252  and  _253
REMARK  100  A    between atoms: _252  and  _255
REMARK  101  A    between atoms: _257  and  _259
REMARK  102  A    between atoms: _259  and  _260
REMARK  103  A    between atoms: _263  and  _265
REMARK  104  A    between atoms: _265  and  _266
REMARK  105  A    between atoms: _265  and  _268
REMARK  106  A    between atoms: _268  and  _269
REMARK  107  A    between atoms: _274  and  _275
REMARK  108  A    between atoms: _278  and  _279
REMARK  109  A    between atoms: _284  and  _286
REMARK  110  A    between atoms: _286  and  _287
REMARK  111  A    between atoms: _286  and  _289
REMARK  112  A    between atoms: _289  and  _290
REMARK  113  A    between atoms: _290  and  _291
REMARK  114  A    between atoms: _293  and  _295
REMARK  115  A    between atoms: _295  and  _296
REMARK  116  A    between atoms: _299  and  _301
REMARK  117  A    between atoms: _301  and  _302
REMARK  118  A    between atoms: _301  and  _304
REMARK  119  A    between atoms: _304  and  _305
REMARK  120  A    between atoms: _308  and  _310
REMARK  121  A    between atoms: _310  and  _311
REMARK  122  A    between atoms: _313  and  _315
REMARK  123  A    between atoms: _315  and  _316
REMARK  124  A    between atoms: _315  and  _318
REMARK  125  A    between atoms: _318  and  _319
REMARK  126  A    between atoms: _324  and  _326
REMARK  127  A    between atoms: _326  and  _327
REMARK  128  A    between atoms: _326  and  _329
REMARK  129  A    between atoms: _329  and  _330
REMARK  130  A    between atoms: _333  and  _335
REMARK  131  A    between atoms: _335  and  _336
REMARK  132  A    between atoms: _335  and  _338
REMARK  133  A    between atoms: _338  and  _339
REMARK  134  A    between atoms: _344  and  _345
REMARK  135  A    between atoms: _347  and  _349
REMARK  136  A    between atoms: _349  and  _350
REMARK  137  A    between atoms: _349  and  _352
REMARK  138  A    between atoms: _352  and  _353
REMARK  139  A    between atoms: _356  and  _358
REMARK  140  A    between atoms: _358  and  _359
REMARK  141  A    between atoms: _358  and  _361
REMARK  142  A    between atoms: _361  and  _362
REMARK  143  A    between atoms: _367  and  _368
REMARK  144  A    between atoms: _371  and  _372
REMARK  145  A    between atoms: _377  and  _379
REMARK  146  A    between atoms: _379  and  _380
REMARK  147  A    between atoms: _379  and  _382
REMARK  148  A    between atoms: _382  and  _383
REMARK  149  A    between atoms: _388  and  _389
REMARK  150  A    between atoms: _391  and  _393
REMARK  151  A    between atoms: _393  and  _394
REMARK  152  A    between atoms: _393  and  _396
REMARK  153  A    between atoms: _396  and  _397
REMARK  154  A    between atoms: _397  and  _398
REMARK  155  A    between atoms: _400  and  _402
REMARK  156  A    between atoms: _402  and  _403
REMARK  157  A    between atoms: _402  and  _405
REMARK  158  A    between atoms: _405  and  _406
REMARK  159  A    between atoms: _411  and  _412
REMARK  160  A    between atoms: _414  and  _416
REMARK  161  A    between atoms: _416  and  _417
REMARK  162  A    between atoms: _416  and  _419
REMARK  163  A    between atoms: _419  and  _420
REMARK  164  A    between atoms: _423  and  _425
REMARK  165  A    between atoms: _425  and  _426
REMARK  166  A    between atoms: _429  and  _431
REMARK  167  A    between atoms: _431  and  _432
REMARK  168  A    between atoms: _434  and  _436
REMARK  169  A    between atoms: _436  and  _437
REMARK  170  A    between atoms: _436  and  _439
REMARK  171  A    between atoms: _439  and  _440
REMARK  172  A    between atoms: _445  and  _446
REMARK  173  A    between atoms: _448  and  _450
REMARK  174  A    between atoms: _450  and  _451
REMARK  175  A    between atoms: _450  and  _453
REMARK  176  A    between atoms: _453  and  _454
REMARK  177  A    between atoms: _459  and  _461
REMARK  178  A    between atoms: _461  and  _462
REMARK  179  A    between atoms: _461  and  _464
REMARK  180  A    between atoms: _466  and  _468
REMARK  181  A    between atoms: _468  and  _469
REMARK  182  A    between atoms: _468  and  _471
REMARK  183  A    between atoms: _471  and  _472
REMARK  184  A    between atoms: _472  and  _473
REMARK  185  A    between atoms: _473  and  _474
REMARK  186  A    between atoms: _483  and  _485
REMARK  187  A    between atoms: _485  and  _486
REMARK  188  A    between atoms: _489  and  _491
REMARK  189  A    between atoms: _491  and  _492
REMARK  190  A    between atoms: _495  and  _497
REMARK  191  A    between atoms: _497  and  _498
REMARK  192  A    between atoms: _497  and  _500
REMARK  193  A    between atoms: _500  and  _501
REMARK  194  A    between atoms: _511  and  _513
REMARK  195  A    between atoms: _513  and  _514
REMARK  196  A    between atoms: _513  and  _516
REMARK  197  A    between atoms: _516  and  _517
REMARK  198  A    between atoms: _520  and  _522
REMARK  199  A    between atoms: _522  and  _523
REMARK  200  A    between atoms: _522  and  _525
REMARK  201  A    between atoms: _525  and  _526
REMARK  202  A    between atoms: _526  and  _527
REMARK  203  A    between atoms: _530  and  _532
REMARK  204  A    between atoms: _532  and  _533
REMARK  205  A    between atoms: _532  and  _535
REMARK  206  A    between atoms: _535  and  _536
REMARK  207  A    between atoms: _539  and  _541
REMARK  208  A    between atoms: _541  and  _542
REMARK  209  A    between atoms: _541  and  _544
REMARK  210  A    between atoms: _544  and  _545
REMARK  211  A    between atoms: _545  and  _546
REMARK  212  A    between atoms: _546  and  _547
REMARK  213  A    between atoms: _547  and  _548
REMARK  214  A    between atoms: _552  and  _554
REMARK  215  A    between atoms: _554  and  _555
REMARK  216  A    between atoms: _554  and  _557
REMARK  217  A    between atoms: _557  and  _558
REMARK  218  A    between atoms: _558  and  _559
REMARK  219  A    between atoms: _562  and  _564
REMARK  220  A    between atoms: _564  and  _565
REMARK  221  A    between atoms: _564  and  _567
REMARK  222  A    between atoms: _567  and  _568
REMARK  223  A    between atoms: _574  and  _576
REMARK  224  A    between atoms: _576  and  _577
REMARK  225  A    between atoms: _576  and  _579
REMARK  226  A    between atoms: _579  and  _580
REMARK  227  A    between atoms: _586  and  _588
REMARK  228  A    between atoms: _588  and  _589
REMARK  229  A    between atoms: _588  and  _591
REMARK  230  A    between atoms: _591  and  _592
REMARK  231  A    between atoms: _592  and  _593
REMARK  232  A    between atoms: _596  and  _598
REMARK  233  A    between atoms: _598  and  _599
REMARK  234  A    between atoms: _598  and  _601
REMARK  235  A    between atoms: _604  and  _606
REMARK  236  A    between atoms: _606  and  _607
REMARK  237  A    between atoms: _610  and  _612
REMARK  238  A    between atoms: _612  and  _613
REMARK  239  A    between atoms: _612  and  _615
REMARK  240  A    between atoms: _615  and  _616
REMARK  241  A    between atoms: _619  and  _621
REMARK  242  A    between atoms: _621  and  _622
REMARK  243  A    between atoms: _621  and  _624
REMARK  244  A    between atoms: _627  and  _629
REMARK  245  A    between atoms: _629  and  _630
REMARK  246  A    between atoms: _629  and  _632
REMARK  247  A    between atoms: _632  and  _633
REMARK                            x       y       z     vdW  Elec       q    Type
REMARK                         _______ _______ _______ _____ _____    ______ ____
ROOT
ATOM      1  CG  TYR A   1       0.066  14.984  15.551  0.00  0.00    -0.020 A 
ATOM      2  CD2 TYR A   1      -0.947  15.664  14.874  0.00  0.00    -0.001 A 
ATOM      3  CE2 TYR A   1      -0.799  16.087  13.611  0.00  0.00    +0.036 A 
ATOM      4  CZ  TYR A   1       0.381  15.830  12.904  0.00  0.00    +0.134 A 
ATOM      5  CE1 TYR A   1       1.429  15.137  13.547  0.00  0.00    +0.036 A 
ATOM      6  CD1 TYR A   1       1.246  14.716  14.845  0.00  0.00    -0.001 A 
ENDROOT
BRANCH   4   7
ATOM      7  OH  TYR A   1       0.508  16.201  11.621  0.00  0.00    -0.506 OA
ATOM      8  HH  TYR A   1       1.403  15.938  11.290  0.00  0.00    +0.292 HD
ENDBRANCH   4   7
BRANCH   1   9
ATOM      9  CB  TYR A   1      -0.119  14.514  16.958  0.00  0.00    +0.051 C 
BRANCH   9  10
ATOM     10  CA  TYR A   1      -0.124  13.016  17.115  0.00  0.00    +0.137 C 
BRANCH  10  11
ATOM     11  N   TYR A   1      -1.251  12.369  16.432  0.00  0.00    -0.239 NA
ATOM     12  H   TYR A   1      -1.974  12.930  15.938  0.00  0.00    +0.142 HD
ENDBRANCH  10  11
BRANCH  10  13
ATOM     13  C   TYR A   1      -0.140  12.673  18.571  0.00  0.00    +0.224 C 
ATOM     14  O   TYR A   1       0.916  12.435  19.215  0.00  0.00    -0.287 OA
ENDBRANCH  10  13
ENDBRANCH   9  10
ENDBRANCH   1   9
TORSDOF 5
REMARK  Name = ../refined-set-2016/4x5y/4x5y_pocket.pdb
REMARK  247 active torsions:
REMARK  status: ('A' for Active; 'I' for Inactive)
REMARK    1  A    between atoms: _1  and  _3
REMARK    2  A    between atoms: _3  and  _4
REMARK    3  A    between atoms: _3  and  _6
REMARK    4  A    between atoms: _6  and  _7
REMARK    5  A    between atoms: _10  and  _12
REMARK    6  A    between atoms: _12  and  _13
REMARK    7  A    between atoms: _12  and  _15
REMARK    8  A    between atoms: _15  and  _16
REMARK    9  A    between atoms: _18  and  _20
REMARK   10  A    between atoms: _20  and  _21
REMARK   11  A    between atoms: _20  and  _23
REMARK   12  A    between atoms: _23  and  _24
REMARK   13  A    between atoms: _26  and  _28
REMARK   14  A    between atoms: _28  and  _29
REMARK   15  A    between atoms: _31  and  _33
REMARK   16  A    between atoms: _33  and  _34
REMARK   17  A    between atoms: _37  and  _39
REMARK   18  A    between atoms: _39  and  _40
REMARK   19  A    between atoms: _39  and  _42
REMARK   20  A    between atoms: _42  and  _43
REMARK   21  A    between atoms: _49  and  _51
REMARK   22  A    between atoms: _51  and  _52
REMARK   23  A    between atoms: _51  and  _54
REMARK   24  A    between atoms: _54  and  _55
REMARK   25  A    between atoms: _58  and  _60
REMARK   26  A    between atoms: _60  and  _61
REMARK   27  A    between atoms: _64  and  _66
REMARK   28  A    between atoms: _66  and  _67
REMARK   29  A    between atoms: _66  and  _69
REMARK   30  A    between atoms: _69  and  _70
REMARK   31  A    between atoms: _73  and  _75
REMARK   32  A    between atoms: _75  and  _76
REMARK   33  A    between atoms: _75  and  _78
REMARK   34  A    between atoms: _78  and  _79
REMARK   35  A    between atoms: _81  and  _83
REMARK   36  A    between atoms: _83  and  _84
REMARK   37  A    between atoms: _83  and  _86
REMARK   38  A    between atoms: _86  and  _87
REMARK   39  A    between atoms: _87  and  _88
REMARK   40  A    between atoms: _91  and  _93
REMARK   41  A    between atoms: _93  and  _94
REMARK   42  A    between atoms: _93  and  _96
REMARK   43  A    between atoms: _96  and  _97
REMARK   44  A    between atoms: _100  and  _102
REMARK   45  A    between atoms: _102  and  _103
REMARK   46  A    between atoms: _102  and  _105
REMARK   47  A    between atoms: _105  and  _106
REMARK   48  A    between atoms: _111  and  _113
REMARK   49  A    between atoms: _113  and  _114
REMARK   50  A    between atoms: _117  and  _119
REMARK   51  A    between atoms: _119  and  _120
REMARK   52  A    between atoms: _119  and  _122
REMARK   53  A    between atoms: _122  and  _123
REMARK   54  A    between atoms: _133  and  _135
REMARK   55  A    between atoms: _135  and  _136
REMARK   56  A    between atoms: _135  and  _138
REMARK   57  A    between atoms: _138  and  _139
REMARK   58  A    between atoms: _142  and  _144
REMARK   59  A    between atoms: _144  and  _145
REMARK   60  A    between atoms: _144  and  _147
REMARK   61  A    between atoms: _147  and  _148
REMARK   62  A    between atoms: _158  and  _160
REMARK   63  A    between atoms: _160  and  _161
REMARK   64  A    between atoms: _160  and  _163
REMARK   65  A    between atoms: _163  and  _164
REMARK   66  A    between atoms: _169  and  _171
REMARK   67  A    between atoms: _171  and  _172
REMARK   68  A    between atoms: _174  and  _176
REMARK   69  A    between atoms: _176  and  _177
REMARK   70  A    between atoms: _176  and  _179
REMARK   71  A    between atoms: _179  and  _180
REMARK   72  A    between atoms: _190  and  _192
REMARK   73  A    between atoms: _192  and  _193
REMARK   74  A    between atoms: _192  and  _195
REMARK   75  A    between atoms: _195  and  _196
REMARK   76  A    between atoms: _199  and  _201
REMARK   77  A    between atoms: _201  and  _202
REMARK   78  A    between atoms: _201  and  _204
REMARK   79  A    between atoms: _204  and  _205
REMARK   80  A    between atoms: _205  and  _206
REMARK   81  A    between atoms: _208  and  _210
REMARK   82  A    between atoms: _210  and  _211
REMARK   83  A    between atoms: _210  and  _213
REMARK   84  A    between atoms: _215  and  _217
REMARK   85  A    between atoms: _217  and  _218
REMARK   86  A    between atoms: _221  and  _223
REMARK   87  A    between atoms: _223  and  _224
REMARK   88  A    between atoms: _223  and  _226
REMARK   89  A    between atoms: _226  and  _227
REMARK   90  A    between atoms: _233  and  _235
REMARK   91  A    between atoms: _235  and  _236
REMARK   92  A    between atoms: _235  and  _238
REMARK   93  A    between atoms: _238  and  _239
REMARK   94  A    between atoms: _239  and  _240
REMARK   95  A    between atoms: _242  and  _244
REMARK   96  A    between atoms: _244  and  _245
REMARK   97  A    between atoms: _244  and  _247
REMARK   98  A    between atoms: _250  and  _252
REMARK   99  A    between atoms: _252  and  _253
REMARK  100  A    between atoms: _252  and  _255
REMARK  101  A    between atoms: _257  and  _259
REMARK  102  A    between atoms: _259  and  _260
REMARK  103  A    between atoms: _263  and  _265
REMARK  104  A    between atoms: _265  and  _266
REMARK  105  A    between atoms: _265  and  _268
REMARK  106  A    between atoms: _268  and  _269
REMARK  107  A    between atoms: _274  and  _275
REMARK  108  A    between atoms: _278  and  _279
REMARK  109  A    between atoms: _284  and  _286
REMARK  110  A    between atoms: _286  and  _287
REMARK  111  A    between atoms: _286  and  _289
REMARK  112  A    between atoms: _289  and  _290
REMARK  113  A    between atoms: _290  and  _291
REMARK  114  A    between atoms: _293  and  _295
REMARK  115  A    between atoms: _295  and  _296
REMARK  116  A    between atoms: _299  and  _301
REMARK  117  A    between atoms: _301  and  _302
REMARK  118  A    between atoms: _301  and  _304
REMARK  119  A    between atoms: _304  and  _305
REMARK  120  A    between atoms: _308  and  _310
REMARK  121  A    between atoms: _310  and  _311
REMARK  122  A    between atoms: _313  and  _315
REMARK  123  A    between atoms: _315  and  _316
REMARK  124  A    between atoms: _315  and  _318
REMARK  125  A    between atoms: _318  and  _319
REMARK  126  A    between atoms: _324  and  _326
REMARK  127  A    between atoms: _326  and  _327
REMARK  128  A    between atoms: _326  and  _329
REMARK  129  A    between atoms: _329  and  _330
REMARK  130  A    between atoms: _333  and  _335
REMARK  131  A    between atoms: _335  and  _336
REMARK  132  A    between atoms: _335  and  _338
REMARK  133  A    between atoms: _338  and  _339
REMARK  134  A    between atoms: _344  and  _345
REMARK  135  A    between atoms: _347  and  _349
REMARK  136  A    between atoms: _349  and  _350
REMARK  137  A    between atoms: _349  and  _352
REMARK  138  A    between atoms: _352  and  _353
REMARK  139  A    between atoms: _356  and  _358
REMARK  140  A    between atoms: _358  and  _359
REMARK  141  A    between atoms: _358  and  _361
REMARK  142  A    between atoms: _361  and  _362
REMARK  143  A    between atoms: _367  and  _368
REMARK  144  A    between atoms: _371  and  _372
REMARK  145  A    between atoms: _377  and  _379
REMARK  146  A    between atoms: _379  and  _380
REMARK  147  A    between atoms: _379  and  _382
REMARK  148  A    between atoms: _382  and  _383
REMARK  149  A    between atoms: _388  and  _389
REMARK  150  A    between atoms: _391  and  _393
REMARK  151  A    between atoms: _393  and  _394
REMARK  152  A    between atoms: _393  and  _396
REMARK  153  A    between atoms: _396  and  _397
REMARK  154  A    between atoms: _397  and  _398
REMARK  155  A    between atoms: _400  and  _402
REMARK  156  A    between atoms: _402  and  _403
REMARK  157  A    between atoms: _402  and  _405
REMARK  158  A    between atoms: _405  and  _406
REMARK  159  A    between atoms: _411  and  _412
REMARK  160  A    between atoms: _414  and  _416
REMARK  161  A    between atoms: _416  and  _417
REMARK  162  A    between atoms: _416  and  _419
REMARK  163  A    between atoms: _419  and  _420
REMARK  164  A    between atoms: _423  and  _425
REMARK  165  A    between atoms: _425  and  _426
REMARK  166  A    between atoms: _429  and  _431
REMARK  167  A    between atoms: _431  and  _432
REMARK  168  A    between atoms: _434  and  _436
REMARK  169  A    between atoms: _436  and  _437
REMARK  170  A    between atoms: _436  and  _439
REMARK  171  A    between atoms: _439  and  _440
REMARK  172  A    between atoms: _445  and  _446
REMARK  173  A    between atoms: _448  and  _450
REMARK  174  A    between atoms: _450  and  _451
REMARK  175  A    between atoms: _450  and  _453
REMARK  176  A    between atoms: _453  and  _454
REMARK  177  A    between atoms: _459  and  _461
REMARK  178  A    between atoms: _461  and  _462
REMARK  179  A    between atoms: _461  and  _464
REMARK  180  A    between atoms: _466  and  _468
REMARK  181  A    between atoms: _468  and  _469
REMARK  182  A    between atoms: _468  and  _471
REMARK  183  A    between atoms: _471  and  _472
REMARK  184  A    between atoms: _472  and  _473
REMARK  185  A    between atoms: _473  and  _474
REMARK  186  A    between atoms: _483  and  _485
REMARK  187  A    between atoms: _485  and  _486
REMARK  188  A    between atoms: _489  and  _491
REMARK  189  A    between atoms: _491  and  _492
REMARK  190  A    between atoms: _495  and  _497
REMARK  191  A    between atoms: _497  and  _498
REMARK  192  A    between atoms: _497  and  _500
REMARK  193  A    between atoms: _500  and  _501
REMARK  194  A    between atoms: _511  and  _513
REMARK  195  A    between atoms: _513  and  _514
REMARK  196  A    between atoms: _513  and  _516
REMARK  197  A    between atoms: _516  and  _517
REMARK  198  A    between atoms: _520  and  _522
REMARK  199  A    between atoms: _522  and  _523
REMARK  200  A    between atoms: _522  and  _525
REMARK  201  A    between atoms: _525  and  _526
REMARK  202  A    between atoms: _526  and  _527
REMARK  203  A    between atoms: _530  and  _532
REMARK  204  A    between atoms: _532  and  _533
REMARK  205  A    between atoms: _532  and  _535
REMARK  206  A    between atoms: _535  and  _536
REMARK  207  A    between atoms: _539  and  _541
REMARK  208  A    between atoms: _541  and  _542
REMARK  209  A    between atoms: _541  and  _544
REMARK  210  A    between atoms: _544  and  _545
REMARK  211  A    between atoms: _545  and  _546
REMARK  212  A    between atoms: _546  and  _547
REMARK  213  A    between atoms: _547  and  _548
REMARK  214  A    between atoms: _552  and  _554
REMARK  215  A    between atoms: _554  and  _555
REMARK  216  A    between atoms: _554  and  _557
REMARK  217  A    between atoms: _557  and  _558
REMARK  218  A    between atoms: _558  and  _559
REMARK  219  A    between atoms: _562  and  _564
REMARK  220  A    between atoms: _564  and  _565
REMARK  221  A    between atoms: _564  and  _567
REMARK  222  A    between atoms: _567  and  _568
REMARK  223  A    between atoms: _574  and  _576
REMARK  224  A    between atoms: _576  and  _577
REMARK  225  A    between atoms: _576  and  _579
REMARK  226  A    between atoms: _579  and  _580
REMARK  227  A    between atoms: _586  and  _588
REMARK  228  A    between atoms: _588  and  _589
REMARK  229  A    between atoms: _588  and  _591
REMARK  230  A    between atoms: _591  and  _592
REMARK  231  A    between atoms: _592  and  _593
REMARK  232  A    between atoms: _596  and  _598
REMARK  233  A    between atoms: _598  and  _599
REMARK  234  A    between atoms: _598  and  _601
REMARK  235  A    between atoms: _604  and  _606
REMARK  236  A    between atoms: _606  and  _607
REMARK  237  A    between atoms: _610  and  _612
REMARK  238  A    between atoms: _612  and  _613
REMARK  239  A    between atoms: _612  and  _615
REMARK  240  A    between atoms: _615  and  _616
REMARK  241  A    between atoms: _619  and  _621
REMARK  242  A    between atoms: _621  and  _622
REMARK  243  A    between atoms: _621  and  _624
REMARK  244  A    between atoms: _627  and  _629
REMARK  245  A    between atoms: _629  and  _630
REMARK  246  A    between atoms: _629  and  _632
REMARK  247  A    between atoms: _632  and  _633
REMARK                            x       y       z     vdW  Elec       q    Type
REMARK                         _______ _______ _______ _____ _____    ______ ____
ROOT
ATOM      1  C   TYR A   6       3.803  17.662  15.495  0.00  0.00    +0.241 C 
ATOM      2  N   LEU A   7       3.406  17.565  16.769  0.00  0.00    -0.297 N 
ATOM      3  H   LEU A   7       3.979  17.042  17.462  0.00  0.00    +0.150 HD
ATOM      4  O   TYR A   6       3.169  18.263  14.584  0.00  0.00    -0.273 OA
ENDROOT
BRANCH   2   5
ATOM      5  CA  LEU A   7       2.134  18.216  17.179  0.00  0.00    +0.149 C 
BRANCH   5   6
ATOM      6  C   LEU A   7       2.195  19.724  16.996  0.00  0.00    +0.241 C 
ATOM      7  N   ALA A   8       3.282  20.329  17.467  0.00  0.00    -0.297 N 
ATOM      8  H   ALA A   8       4.035  19.768  17.914  0.00  0.00    +0.150 HD
ATOM      9  O   LEU A   7       1.289  20.347  16.392  0.00  0.00    -0.273 OA
BRANCH   7  10
ATOM     10  CA  ALA A   8       3.421  21.789  17.357  0.00  0.00    +0.149 C 
ATOM     11  CB  ALA A   8       4.741  22.232  18.019  0.00  0.00    +0.031 C 
BRANCH  10  12
ATOM     12  C   ALA A   8       3.346  22.249  15.906  0.00  0.00    +0.241 C 
ATOM     13  O   ALA A   8       2.731  23.277  15.584  0.00  0.00    -0.273 OA
ATOM     14  N   GLY A   9       3.997  21.499  15.003  0.00  0.00    -0.295 N 
ATOM     15  H   GLY A   9       4.498  20.645  15.322  0.00  0.00    +0.150 HD
BRANCH  14  16
ATOM     16  CA  GLY A   9       4.022  21.849  13.579  0.00  0.00    +0.176 C 
BRANCH  16  17
ATOM     17  C   GLY A   9       2.628  21.830  12.958  0.00  0.00    +0.243 C 
ATOM     18  N   TYR A  10       1.853  20.824  13.285  0.00  0.00    -0.297 N 
ATOM     19  H   TYR A  10       2.256  20.042  13.839  0.00  0.00    +0.150 HD
ATOM     20  O   GLY A   9       2.303  22.703  12.204  0.00  0.00    -0.273 OA
BRANCH  18  21
ATOM     21  CA  TYR A  10       0.448  20.760  12.901  0.00  0.00    +0.153 C 
BRANCH  21  22
ATOM     22  C   TYR A  10      -0.287  22.003  13.355  0.00  0.00    +0.241 C 
ATOM     23  N   HIS A  11      -0.182  22.327  14.639  0.00  0.00    -0.297 N 
ATOM     24  H   HIS A  11       0.385  21.743  15.286  0.00  0.00    +0.150 HD
ATOM     25  O   TYR A  10      -0.978  22.669  12.540  0.00  0.00    -0.273 OA
BRANCH  23  26
ATOM     26  CA  HIS A  11      -0.879  23.521  15.129  0.00  0.00    +0.155 C 
BRANCH  26  27
ATOM     27  C   HIS A  11      -0.390  24.801  14.519  0.00  0.00    +0.241 C 
ATOM     28  N   CYS A  12       0.912  24.898  14.276  0.00  0.00    -0.296 N 
ATOM     29  H   CYS A  12       1.543  24.152  14.632  0.00  0.00    +0.150 HD
ATOM     30  O   HIS A  11      -1.189  25.682  14.217  0.00  0.00    -0.273 OA
BRANCH  28  31
ATOM     31  CA  CYS A  12       1.490  26.003  13.534  0.00  0.00    +0.160 C 
BRANCH  31  32
ATOM     32  C   CYS A  12       0.897  26.157  12.135  0.00  0.00    +0.242 C 
ATOM     33  O   CYS A  12       0.481  27.263  11.719  0.00  0.00    -0.273 OA
ATOM     34  N   ARG A  13       0.889  25.067  11.376  0.00  0.00    -0.298 N 
ATOM     35  H   ARG A  13       1.265  24.172  11.749  0.00  0.00    +0.150 HD
BRANCH  34  36
ATOM     36  CA  ARG A  13       0.347  25.125  10.002  0.00  0.00    +0.137 C 
BRANCH  36  37
ATOM     37  C   ARG A  13      -1.128  25.525  10.024  0.00  0.00    +0.227 C 
ATOM     38  O   ARG A  13      -1.639  26.082   9.052  0.00  0.00    -0.286 OA
ENDBRANCH  36  37
BRANCH  36  39
ATOM     39  CB  ARG A  13       0.544  23.790   9.268  0.00  0.00    +0.031 C 
BRANCH  39  40
ATOM     40  CG  ARG A  13       1.972  23.433   8.911  0.00  0.00    +0.045 C 
BRANCH  40  41
ATOM     41  CD  ARG A  13       1.974  22.168   8.038  0.00  0.00    +0.174 C 
BRANCH  41  42
ATOM     42  NE  ARG A  13       1.519  20.974   8.735  0.00  0.00    -0.265 N 
ATOM     43  CZ  ARG A  13       2.289  20.282   9.587  0.00  0.00    +0.342 C 
ATOM     44  NH2 ARG A  13       1.809  19.184  10.168  0.00  0.00    -0.292 N 
ATOM     45 HH21 ARG A  13       2.402  18.644  10.830  0.00  0.00    +0.255 HD
ATOM     46 HH22 ARG A  13       0.841  18.867   9.960  0.00  0.00    +0.255 HD
ATOM     47  NH1 ARG A  13       3.501  20.717   9.877  0.00  0.00    -0.292 N 
ATOM     48 HH11 ARG A  13       4.101  20.183  10.537  0.00  0.00    +0.255 HD
ATOM     49 HH12 ARG A  13       3.856  21.594   9.445  0.00  0.00    +0.255 HD
ATOM     50  HE  ARG A  13       0.549  20.641   8.564  0.00  0.00    +0.259 HD
ENDBRANCH  41  42
ENDBRANCH  40  41
ENDBRANCH  39  40
ENDBRANCH  36  39
ENDBRANCH  34  36
ENDBRANCH  31  32
BRANCH  31  51
ATOM     51  CB  CYS A  12       2.988  25.791  13.434  0.00  0.00    +0.098 C 
ATOM     52  SG  CYS A  12       3.800  27.282  12.893  0.00  0.00    -0.080 S 
ENDBRANCH  31  51
ENDBRANCH  28  31
ENDBRANCH  26  27
BRANCH  26  53
ATOM     53  CB  HIS A  11      -0.834  23.606  16.612  0.00  0.00    +0.076 C 
BRANCH  53  54
ATOM     54  CG  HIS A  11      -1.658  22.574  17.318  0.00  0.00    +0.082 A 
ATOM     55  CD2 HIS A  11      -1.341  21.709  18.289  0.00  0.00    +0.115 A 
ATOM     56  NE2 HIS A  11      -2.486  21.062  18.652  0.00  0.00    -0.221 NA
ATOM     57  CE1 HIS A  11      -3.476  21.502  17.911  0.00  0.00    +0.199 A 
ATOM     58  ND1 HIS A  11      -3.012  22.426  17.106  0.00  0.00    -0.227 NA
ENDBRANCH  53  54
ENDBRANCH  26  53
ENDBRANCH  23  26
ENDBRANCH  21  22
BRANCH  21  59
ATOM     59  CB  TYR A  10      -0.231  19.515  13.488  0.00  0.00    +0.055 C 
BRANCH  59  60
ATOM     60  CG  TYR A  10      -1.695  19.428  13.163  0.00  0.00    -0.020 A 
ATOM     61  CD2 TYR A  10      -2.642  19.785  14.113  0.00  0.00    -0.001 A 
ATOM     62  CE2 TYR A  10      -4.002  19.710  13.823  0.00  0.00    +0.036 A 
ATOM     63  CZ  TYR A  10      -4.386  19.215  12.624  0.00  0.00    +0.134 A 
ATOM     64  CE1 TYR A  10      -3.490  18.831  11.686  0.00  0.00    +0.036 A 
ATOM     65  CD1 TYR A  10      -2.121  18.956  11.949  0.00  0.00    -0.001 A 
BRANCH  63  66
ATOM     66  OH  TYR A  10      -5.738  19.130  12.344  0.00  0.00    -0.506 OA
ATOM     67  HH  TYR A  10      -6.176  18.544  13.011  0.00  0.00    +0.292 HD
ENDBRANCH  63  66
ENDBRANCH  59  60
ENDBRANCH  21  59
ENDBRANCH  18  21
ENDBRANCH  16  17
ENDBRANCH  14  16
ENDBRANCH  10  12
ENDBRANCH   7  10
ENDBRANCH   5   6
BRANCH   5  68
ATOM     68  CB  LEU A   7       1.747  17.809  18.580  0.00  0.00    +0.029 C 
BRANCH  68  69
ATOM     69  CG  LEU A   7       0.521  18.513  19.218  0.00  0.00    +0.002 C 
ATOM     70  CD2 LEU A   7       0.463  18.169  20.671  0.00  0.00    +0.000 C 
ATOM     71  CD1 LEU A   7      -0.656  18.049  18.396  0.00  0.00    +0.000 C 
ENDBRANCH  68  69
ENDBRANCH   5  68
ENDBRANCH   2   5
BRANCH   1  72
ATOM     72  CA  TYR A   6       5.136  16.946  15.137  0.00  0.00    +0.153 C 
BRANCH  72  74
ATOM     73  C   MET A   5       6.462  18.603  16.407  0.00  0.00    +0.241 C 
ATOM     74  N   TYR A   6       6.113  17.333  16.175  0.00  0.00    -0.297 N 
ATOM     75  H   TYR A   6       6.549  16.585  16.751  0.00  0.00    +0.150 HD
ATOM     76  O   MET A   5       6.035  19.562  15.780  0.00  0.00    -0.273 OA
BRANCH  73  77
ATOM     77  CA  MET A   5       7.431  18.899  17.537  0.00  0.00    +0.149 C 
BRANCH  77  80
ATOM     78  C   TYR A   4       5.978  18.194  19.346  0.00  0.00    +0.241 C 
ATOM     79  O   TYR A   4       5.179  19.084  19.084  0.00  0.00    -0.273 OA
ATOM     80  N   MET A   5       7.150  18.107  18.716  0.00  0.00    -0.297 N 
ATOM     81  H   MET A   5       7.877  17.457  19.079  0.00  0.00    +0.150 HD
BRANCH  78  82
ATOM     82  CA  TYR A   4       5.739  17.231  20.507  0.00  0.00    +0.153 C 
BRANCH  82  84
ATOM     83  C   PRO A   3       5.695  15.061  19.479  0.00  0.00    +0.241 C 
ATOM     84  N   TYR A   4       6.301  15.923  20.268  0.00  0.00    -0.297 N 
ATOM     85  H   TYR A   4       7.197  15.658  20.725  0.00  0.00    +0.150 HD
ATOM     86  O   PRO A   3       4.676  15.364  18.848  0.00  0.00    -0.273 OA
BRANCH  83  92
ATOM     87  C   TYR A   2       8.324  14.667  18.181  0.00  0.00    +0.244 C 
ATOM     88  N   PRO A   3       7.854  13.858  19.141  0.00  0.00    -0.272 N 
ATOM     89  CD  PRO A   3       8.531  12.846  19.981  0.00  0.00    +0.094 C 
ATOM     90  CG  PRO A   3       7.437  11.856  20.268  0.00  0.00    +0.024 C 
ATOM     91  CB  PRO A   3       6.189  12.686  20.353  0.00  0.00    +0.031 C 
ATOM     92  CA  PRO A   3       6.366  13.702  19.241  0.00  0.00    +0.152 C 
ATOM     93  O   TYR A   2       7.620  15.258  17.409  0.00  0.00    -0.273 OA
BRANCH  87  94
ATOM     94  CA  TYR A   2       9.825  14.911  18.054  0.00  0.00    +0.153 C 
BRANCH  94  97
ATOM     95  C   ILE A   1      10.387  15.599  20.296  0.00  0.00    +0.238 C 
ATOM     96  O   ILE A   1       9.445  16.439  20.272  0.00  0.00    -0.274 OA
ATOM     97  N   TYR A   2      10.555  14.729  19.310  0.00  0.00    -0.297 N 
ATOM     98  H   TYR A   2      11.201  13.923  19.428  0.00  0.00    +0.150 HD
BRANCH  95  99
ATOM     99  CA  ILE A   1      11.323  15.544  21.477  0.00  0.00    +0.145 C 
BRANCH  99 100
ATOM    100  N   ILE A   1      11.754  14.166  21.837  0.00  0.00    -0.238 NA
ATOM    101  H   ILE A   1      12.593  13.754  21.382  0.00  0.00    +0.142 HD
ENDBRANCH  99 100
BRANCH  99 102
ATOM    102  CB  ILE A   1      12.597  16.365  21.085  0.00  0.00    +0.025 C 
ATOM    103  CG2 ILE A   1      12.275  17.840  20.804  0.00  0.00    +0.002 C 
BRANCH 102 104
ATOM    104  CG1 ILE A   1      13.637  16.267  22.197  0.00  0.00    +0.002 C 
ATOM    105  CD1 ILE A   1      13.225  16.998  23.449  0.00  0.00    +0.000 C 
ENDBRANCH 102 104
ENDBRANCH  99 102
ENDBRANCH  95  99
ENDBRANCH  94  97
BRANCH  94 106
ATOM    106  CB  TYR A   2      10.393  14.061  16.899  0.00  0.00    +0.055 C 
BRANCH 106 107
ATOM    107  CG  TYR A   2      11.622  14.673  16.252  0.00  0.00    -0.020 A 
ATOM    108  CD2 TYR A   2      12.809  13.988  16.254  0.00  0.00    -0.001 A 
ATOM    109  CE2 TYR A   2      13.949  14.517  15.653  0.00  0.00    +0.036 A 
ATOM    110  CZ  TYR A   2      13.947  15.777  15.145  0.00  0.00    +0.134 A 
ATOM    111  CE1 TYR A   2      12.756  16.485  15.083  0.00  0.00    +0.036 A 
ATOM    112  CD1 TYR A   2      11.595  15.910  15.638  0.00  0.00    -0.001 A 
BRANCH 110 113
ATOM    113  OH  TYR A   2      15.142  16.247  14.604  0.00  0.00    -0.506 OA
ATOM    114  HH  TYR A   2      15.011  17.170  14.270  0.00  0.00    +0.292 HD
ENDBRANCH 110 113
ENDBRANCH 106 107
ENDBRANCH  94 106
ENDBRANCH  87  94
ENDBRANCH  83  92
ENDBRANCH  82  84
BRANCH  82 115
ATOM    115  CB  TYR A   4       6.263  17.767  21.799  0.00  0.00    +0.055 C 
BRANCH 115 116
ATOM    116  CG  TYR A   4       5.926  16.883  22.990  0.00  0.00    -0.020 A 
ATOM    117  CD2 TYR A   4       6.894  16.084  23.609  0.00  0.00    -0.001 A 
ATOM    118  CE2 TYR A   4       6.567  15.281  24.698  0.00  0.00    +0.036 A 
ATOM    119  CZ  TYR A   4       5.291  15.319  25.232  0.00  0.00    +0.134 A 
ATOM    120  CE1 TYR A   4       4.373  16.130  24.690  0.00  0.00    +0.036 A 
ATOM    121  CD1 TYR A   4       4.656  16.898  23.579  0.00  0.00    -0.001 A 
BRANCH 119 122
ATOM    122  OH  TYR A   4       5.054  14.544  26.344  0.00  0.00    -0.506 OA
ATOM    123  HH  TYR A   4       5.222  13.593  26.124  0.00  0.00    +0.292 HD
ENDBRANCH 119 122
ENDBRANCH 115 116
ENDBRANCH  82 115
ENDBRANCH  78  82
ENDBRANCH  77  80
BRANCH  77 124
ATOM    124  CB  MET A   5       8.847  18.687  17.002  0.00  0.00    +0.041 C 
BRANCH 124 125
ATOM    125  CG  MET A   5       9.853  19.241  17.926  0.00  0.00    +0.060 C 
BRANCH 125 126
ATOM    126  SD  MET A   5      10.009  20.984  17.747  0.00  0.00    -0.139 S 
ATOM    127  CE  MET A   5      11.512  21.274  18.698  0.00  0.00    +0.069 C 
ENDBRANCH 125 126
ENDBRANCH 124 125
ENDBRANCH  77 124
ENDBRANCH  73  77
ENDBRANCH  72  74
BRANCH  72 128
ATOM    128  CB  TYR A   6       4.894  15.425  15.083  0.00  0.00    +0.055 C 
BRANCH 128 129
ATOM    129  CG  TYR A   6       5.807  14.604  14.160  0.00  0.00    -0.020 A 
ATOM    130  CD2 TYR A   6       6.760  13.746  14.678  0.00  0.00    -0.001 A 
ATOM    131  CE2 TYR A   6       7.552  12.984  13.825  0.00  0.00    +0.036 A 
ATOM    132  CZ  TYR A   6       7.305  12.989  12.465  0.00  0.00    +0.134 A 
ATOM    133  CE1 TYR A   6       6.358  13.767  11.926  0.00  0.00    +0.036 A 
ATOM    134  CD1 TYR A   6       5.575  14.568  12.792  0.00  0.00    -0.001 A 
BRANCH 132 135
ATOM    135  OH  TYR A   6       8.092  12.206  11.624  0.00  0.00    -0.506 OA
ATOM    136  HH  TYR A   6       7.789  12.321  10.689  0.00  0.00    +0.292 HD
ENDBRANCH 132 135
ENDBRANCH 128 129
ENDBRANCH  72 128
ENDBRANCH   1  72
TORSDOF 51
REMARK  Name = ../refined-set-2016/4x5y/4x5y_pocket.pdb
REMARK  247 active torsions:
REMARK  status: ('A' for Active; 'I' for Inactive)
REMARK    1  A    between atoms: _1  and  _3
REMARK    2  A    between atoms: _3  and  _4
REMARK    3  A    between atoms: _3  and  _6
REMARK    4  A    between atoms: _6  and  _7
REMARK    5  A    between atoms: _10  and  _12
REMARK    6  A    between atoms: _12  and  _13
REMARK    7  A    between atoms: _12  and  _15
REMARK    8  A    between atoms: _15  and  _16
REMARK    9  A    between atoms: _18  and  _20
REMARK   10  A    between atoms: _20  and  _21
REMARK   11  A    between atoms: _20  and  _23
REMARK   12  A    between atoms: _23  and  _24
REMARK   13  A    between atoms: _26  and  _28
REMARK   14  A    between atoms: _28  and  _29
REMARK   15  A    between atoms: _31  and  _33
REMARK   16  A    between atoms: _33  and  _34
REMARK   17  A    between atoms: _37  and  _39
REMARK   18  A    between atoms: _39  and  _40
REMARK   19  A    between atoms: _39  and  _42
REMARK   20  A    between atoms: _42  and  _43
REMARK   21  A    between atoms: _49  and  _51
REMARK   22  A    between atoms: _51  and  _52
REMARK   23  A    between atoms: _51  and  _54
REMARK   24  A    between atoms: _54  and  _55
REMARK   25  A    between atoms: _58  and  _60
REMARK   26  A    between atoms: _60  and  _61
REMARK   27  A    between atoms: _64  and  _66
REMARK   28  A    between atoms: _66  and  _67
REMARK   29  A    between atoms: _66  and  _69
REMARK   30  A    between atoms: _69  and  _70
REMARK   31  A    between atoms: _73  and  _75
REMARK   32  A    between atoms: _75  and  _76
REMARK   33  A    between atoms: _75  and  _78
REMARK   34  A    between atoms: _78  and  _79
REMARK   35  A    between atoms: _81  and  _83
REMARK   36  A    between atoms: _83  and  _84
REMARK   37  A    between atoms: _83  and  _86
REMARK   38  A    between atoms: _86  and  _87
REMARK   39  A    between atoms: _87  and  _88
REMARK   40  A    between atoms: _91  and  _93
REMARK   41  A    between atoms: _93  and  _94
REMARK   42  A    between atoms: _93  and  _96
REMARK   43  A    between atoms: _96  and  _97
REMARK   44  A    between atoms: _100  and  _102
REMARK   45  A    between atoms: _102  and  _103
REMARK   46  A    between atoms: _102  and  _105
REMARK   47  A    between atoms: _105  and  _106
REMARK   48  A    between atoms: _111  and  _113
REMARK   49  A    between atoms: _113  and  _114
REMARK   50  A    between atoms: _117  and  _119
REMARK   51  A    between atoms: _119  and  _120
REMARK   52  A    between atoms: _119  and  _122
REMARK   53  A    between atoms: _122  and  _123
REMARK   54  A    between atoms: _133  and  _135
REMARK   55  A    between atoms: _135  and  _136
REMARK   56  A    between atoms: _135  and  _138
REMARK   57  A    between atoms: _138  and  _139
REMARK   58  A    between atoms: _142  and  _144
REMARK   59  A    between atoms: _144  and  _145
REMARK   60  A    between atoms: _144  and  _147
REMARK   61  A    between atoms: _147  and  _148
REMARK   62  A    between atoms: _158  and  _160
REMARK   63  A    between atoms: _160  and  _161
REMARK   64  A    between atoms: _160  and  _163
REMARK   65  A    between atoms: _163  and  _164
REMARK   66  A    between atoms: _169  and  _171
REMARK   67  A    between atoms: _171  and  _172
REMARK   68  A    between atoms: _174  and  _176
REMARK   69  A    between atoms: _176  and  _177
REMARK   70  A    between atoms: _176  and  _179
REMARK   71  A    between atoms: _179  and  _180
REMARK   72  A    between atoms: _190  and  _192
REMARK   73  A    between atoms: _192  and  _193
REMARK   74  A    between atoms: _192  and  _195
REMARK   75  A    between atoms: _195  and  _196
REMARK   76  A    between atoms: _199  and  _201
REMARK   77  A    between atoms: _201  and  _202
REMARK   78  A    between atoms: _201  and  _204
REMARK   79  A    between atoms: _204  and  _205
REMARK   80  A    between atoms: _205  and  _206
REMARK   81  A    between atoms: _208  and  _210
REMARK   82  A    between atoms: _210  and  _211
REMARK   83  A    between atoms: _210  and  _213
REMARK   84  A    between atoms: _215  and  _217
REMARK   85  A    between atoms: _217  and  _218
REMARK   86  A    between atoms: _221  and  _223
REMARK   87  A    between atoms: _223  and  _224
REMARK   88  A    between atoms: _223  and  _226
REMARK   89  A    between atoms: _226  and  _227
REMARK   90  A    between atoms: _233  and  _235
REMARK   91  A    between atoms: _235  and  _236
REMARK   92  A    between atoms: _235  and  _238
REMARK   93  A    between atoms: _238  and  _239
REMARK   94  A    between atoms: _239  and  _240
REMARK   95  A    between atoms: _242  and  _244
REMARK   96  A    between atoms: _244  and  _245
REMARK   97  A    between atoms: _244  and  _247
REMARK   98  A    between atoms: _250  and  _252
REMARK   99  A    between atoms: _252  and  _253
REMARK  100  A    between atoms: _252  and  _255
REMARK  101  A    between atoms: _257  and  _259
REMARK  102  A    between atoms: _259  and  _260
REMARK  103  A    between atoms: _263  and  _265
REMARK  104  A    between atoms: _265  and  _266
REMARK  105  A    between atoms: _265  and  _268
REMARK  106  A    between atoms: _268  and  _269
REMARK  107  A    between atoms: _274  and  _275
REMARK  108  A    between atoms: _278  and  _279
REMARK  109  A    between atoms: _284  and  _286
REMARK  110  A    between atoms: _286  and  _287
REMARK  111  A    between atoms: _286  and  _289
REMARK  112  A    between atoms: _289  and  _290
REMARK  113  A    between atoms: _290  and  _291
REMARK  114  A    between atoms: _293  and  _295
REMARK  115  A    between atoms: _295  and  _296
REMARK  116  A    between atoms: _299  and  _301
REMARK  117  A    between atoms: _301  and  _302
REMARK  118  A    between atoms: _301  and  _304
REMARK  119  A    between atoms: _304  and  _305
REMARK  120  A    between atoms: _308  and  _310
REMARK  121  A    between atoms: _310  and  _311
REMARK  122  A    between atoms: _313  and  _315
REMARK  123  A    between atoms: _315  and  _316
REMARK  124  A    between atoms: _315  and  _318
REMARK  125  A    between atoms: _318  and  _319
REMARK  126  A    between atoms: _324  and  _326
REMARK  127  A    between atoms: _326  and  _327
REMARK  128  A    between atoms: _326  and  _329
REMARK  129  A    between atoms: _329  and  _330
REMARK  130  A    between atoms: _333  and  _335
REMARK  131  A    between atoms: _335  and  _336
REMARK  132  A    between atoms: _335  and  _338
REMARK  133  A    between atoms: _338  and  _339
REMARK  134  A    between atoms: _344  and  _345
REMARK  135  A    between atoms: _347  and  _349
REMARK  136  A    between atoms: _349  and  _350
REMARK  137  A    between atoms: _349  and  _352
REMARK  138  A    between atoms: _352  and  _353
REMARK  139  A    between atoms: _356  and  _358
REMARK  140  A    between atoms: _358  and  _359
REMARK  141  A    between atoms: _358  and  _361
REMARK  142  A    between atoms: _361  and  _362
REMARK  143  A    between atoms: _367  and  _368
REMARK  144  A    between atoms: _371  and  _372
REMARK  145  A    between atoms: _377  and  _379
REMARK  146  A    between atoms: _379  and  _380
REMARK  147  A    between atoms: _379  and  _382
REMARK  148  A    between atoms: _382  and  _383
REMARK  149  A    between atoms: _388  and  _389
REMARK  150  A    between atoms: _391  and  _393
REMARK  151  A    between atoms: _393  and  _394
REMARK  152  A    between atoms: _393  and  _396
REMARK  153  A    between atoms: _396  and  _397
REMARK  154  A    between atoms: _397  and  _398
REMARK  155  A    between atoms: _400  and  _402
REMARK  156  A    between atoms: _402  and  _403
REMARK  157  A    between atoms: _402  and  _405
REMARK  158  A    between atoms: _405  and  _406
REMARK  159  A    between atoms: _411  and  _412
REMARK  160  A    between atoms: _414  and  _416
REMARK  161  A    between atoms: _416  and  _417
REMARK  162  A    between atoms: _416  and  _419
REMARK  163  A    between atoms: _419  and  _420
REMARK  164  A    between atoms: _423  and  _425
REMARK  165  A    between atoms: _425  and  _426
REMARK  166  A    between atoms: _429  and  _431
REMARK  167  A    between atoms: _431  and  _432
REMARK  168  A    between atoms: _434  and  _436
REMARK  169  A    between atoms: _436  and  _437
REMARK  170  A    between atoms: _436  and  _439
REMARK  171  A    between atoms: _439  and  _440
REMARK  172  A    between atoms: _445  and  _446
REMARK  173  A    between atoms: _448  and  _450
REMARK  174  A    between atoms: _450  and  _451
REMARK  175  A    between atoms: _450  and  _453
REMARK  176  A    between atoms: _453  and  _454
REMARK  177  A    between atoms: _459  and  _461
REMARK  178  A    between atoms: _461  and  _462
REMARK  179  A    between atoms: _461  and  _464
REMARK  180  A    between atoms: _466  and  _468
REMARK  181  A    between atoms: _468  and  _469
REMARK  182  A    between atoms: _468  and  _471
REMARK  183  A    between atoms: _471  and  _472
REMARK  184  A    between atoms: _472  and  _473
REMARK  185  A    between atoms: _473  and  _474
REMARK  186  A    between atoms: _483  and  _485
REMARK  187  A    between atoms: _485  and  _486
REMARK  188  A    between atoms: _489  and  _491
REMARK  189  A    between atoms: _491  and  _492
REMARK  190  A    between atoms: _495  and  _497
REMARK  191  A    between atoms: _497  and  _498
REMARK  192  A    between atoms: _497  and  _500
REMARK  193  A    between atoms: _500  and  _501
REMARK  194  A    between atoms: _511  and  _513
REMARK  195  A    between atoms: _513  and  _514
REMARK  196  A    between atoms: _513  and  _516
REMARK  197  A    between atoms: _516  and  _517
REMARK  198  A    between atoms: _520  and  _522
REMARK  199  A    between atoms: _522  and  _523
REMARK  200  A    between atoms: _522  and  _525
REMARK  201  A    between atoms: _525  and  _526
REMARK  202  A    between atoms: _526  and  _527
REMARK  203  A    between atoms: _530  and  _532
REMARK  204  A    between atoms: _532  and  _533
REMARK  205  A    between atoms: _532  and  _535
REMARK  206  A    between atoms: _535  and  _536
REMARK  207  A    between atoms: _539  and  _541
REMARK  208  A    between atoms: _541  and  _542
REMARK  209  A    between atoms: _541  and  _544
REMARK  210  A    between atoms: _544  and  _545
REMARK  211  A    between atoms: _545  and  _546
REMARK  212  A    between atoms: _546  and  _547
REMARK  213  A    between atoms: _547  and  _548
REMARK  214  A    between atoms: _552  and  _554
REMARK  215  A    between atoms: _554  and  _555
REMARK  216  A    between atoms: _554  and  _557
REMARK  217  A    between atoms: _557  and  _558
REMARK  218  A    between atoms: _558  and  _559
REMARK  219  A    between atoms: _562  and  _564
REMARK  220  A    between atoms: _564  and  _565
REMARK  221  A    between atoms: _564  and  _567
REMARK  222  A    between atoms: _567  and  _568
REMARK  223  A    between atoms: _574  and  _576
REMARK  224  A    between atoms: _576  and  _577
REMARK  225  A    between atoms: _576  and  _579
REMARK  226  A    between atoms: _579  and  _580
REMARK  227  A    between atoms: _586  and  _588
REMARK  228  A    between atoms: _588  and  _589
REMARK  229  A    between atoms: _588  and  _591
REMARK  230  A    between atoms: _591  and  _592
REMARK  231  A    between atoms: _592  and  _593
REMARK  232  A    between atoms: _596  and  _598
REMARK  233  A    between atoms: _598  and  _599
REMARK  234  A    between atoms: _598  and  _601
REMARK  235  A    between atoms: _604  and  _606
REMARK  236  A    between atoms: _606  and  _607
REMARK  237  A    between atoms: _610  and  _612
REMARK  238  A    between atoms: _612  and  _613
REMARK  239  A    between atoms: _612  and  _615
REMARK  240  A    between atoms: _615  and  _616
REMARK  241  A    between atoms: _619  and  _621
REMARK  242  A    between atoms: _621  and  _622
REMARK  243  A    between atoms: _621  and  _624
REMARK  244  A    between atoms: _627  and  _629
REMARK  245  A    between atoms: _629  and  _630
REMARK  246  A    between atoms: _629  and  _632
REMARK  247  A    between atoms: _632  and  _633
REMARK                            x       y       z     vdW  Elec       q    Type
REMARK                         _______ _______ _______ _____ _____    ______ ____
ROOT
ATOM      1  CA  ALA A   1       1.462  25.331  19.036  0.00  0.00    +0.133 C 
ATOM      2  CB  ALA A   1       1.681  26.155  17.823  0.00  0.00    +0.027 C 
ENDROOT
BRANCH   1   3
ATOM      3  N   ALA A   1       0.066  25.479  19.517  0.00  0.00    -0.239 NA
ATOM      4  H   ALA A   1      -0.546  26.211  19.103  0.00  0.00    +0.142 HD
ENDBRANCH   1   3
BRANCH   1   5
ATOM      5  C   ALA A   1       2.436  25.725  20.142  0.00  0.00    +0.224 C 
ATOM      6  O   ALA A   1       3.389  24.952  20.446  0.00  0.00    -0.287 OA
ENDBRANCH   1   5
TORSDOF 2
REMARK  Name = ../refined-set-2016/4x5y/4x5y_pocket.pdb
REMARK  247 active torsions:
REMARK  status: ('A' for Active; 'I' for Inactive)
REMARK    1  A    between atoms: _1  and  _3
REMARK    2  A    between atoms: _3  and  _4
REMARK    3  A    between atoms: _3  and  _6
REMARK    4  A    between atoms: _6  and  _7
REMARK    5  A    between atoms: _10  and  _12
REMARK    6  A    between atoms: _12  and  _13
REMARK    7  A    between atoms: _12  and  _15
REMARK    8  A    between atoms: _15  and  _16
REMARK    9  A    between atoms: _18  and  _20
REMARK   10  A    between atoms: _20  and  _21
REMARK   11  A    between atoms: _20  and  _23
REMARK   12  A    between atoms: _23  and  _24
REMARK   13  A    between atoms: _26  and  _28
REMARK   14  A    between atoms: _28  and  _29
REMARK   15  A    between atoms: _31  and  _33
REMARK   16  A    between atoms: _33  and  _34
REMARK   17  A    between atoms: _37  and  _39
REMARK   18  A    between atoms: _39  and  _40
REMARK   19  A    between atoms: _39  and  _42
REMARK   20  A    between atoms: _42  and  _43
REMARK   21  A    between atoms: _49  and  _51
REMARK   22  A    between atoms: _51  and  _52
REMARK   23  A    between atoms: _51  and  _54
REMARK   24  A    between atoms: _54  and  _55
REMARK   25  A    between atoms: _58  and  _60
REMARK   26  A    between atoms: _60  and  _61
REMARK   27  A    between atoms: _64  and  _66
REMARK   28  A    between atoms: _66  and  _67
REMARK   29  A    between atoms: _66  and  _69
REMARK   30  A    between atoms: _69  and  _70
REMARK   31  A    between atoms: _73  and  _75
REMARK   32  A    between atoms: _75  and  _76
REMARK   33  A    between atoms: _75  and  _78
REMARK   34  A    between atoms: _78  and  _79
REMARK   35  A    between atoms: _81  and  _83
REMARK   36  A    between atoms: _83  and  _84
REMARK   37  A    between atoms: _83  and  _86
REMARK   38  A    between atoms: _86  and  _87
REMARK   39  A    between atoms: _87  and  _88
REMARK   40  A    between atoms: _91  and  _93
REMARK   41  A    between atoms: _93  and  _94
REMARK   42  A    between atoms: _93  and  _96
REMARK   43  A    between atoms: _96  and  _97
REMARK   44  A    between atoms: _100  and  _102
REMARK   45  A    between atoms: _102  and  _103
REMARK   46  A    between atoms: _102  and  _105
REMARK   47  A    between atoms: _105  and  _106
REMARK   48  A    between atoms: _111  and  _113
REMARK   49  A    between atoms: _113  and  _114
REMARK   50  A    between atoms: _117  and  _119
REMARK   51  A    between atoms: _119  and  _120
REMARK   52  A    between atoms: _119  and  _122
REMARK   53  A    between atoms: _122  and  _123
REMARK   54  A    between atoms: _133  and  _135
REMARK   55  A    between atoms: _135  and  _136
REMARK   56  A    between atoms: _135  and  _138
REMARK   57  A    between atoms: _138  and  _139
REMARK   58  A    between atoms: _142  and  _144
REMARK   59  A    between atoms: _144  and  _145
REMARK   60  A    between atoms: _144  and  _147
REMARK   61  A    between atoms: _147  and  _148
REMARK   62  A    between atoms: _158  and  _160
REMARK   63  A    between atoms: _160  and  _161
REMARK   64  A    between atoms: _160  and  _163
REMARK   65  A    between atoms: _163  and  _164
REMARK   66  A    between atoms: _169  and  _171
REMARK   67  A    between atoms: _171  and  _172
REMARK   68  A    between atoms: _174  and  _176
REMARK   69  A    between atoms: _176  and  _177
REMARK   70  A    between atoms: _176  and  _179
REMARK   71  A    between atoms: _179  and  _180
REMARK   72  A    between atoms: _190  and  _192
REMARK   73  A    between atoms: _192  and  _193
REMARK   74  A    between atoms: _192  and  _195
REMARK   75  A    between atoms: _195  and  _196
REMARK   76  A    between atoms: _199  and  _201
REMARK   77  A    between atoms: _201  and  _202
REMARK   78  A    between atoms: _201  and  _204
REMARK   79  A    between atoms: _204  and  _205
REMARK   80  A    between atoms: _205  and  _206
REMARK   81  A    between atoms: _208  and  _210
REMARK   82  A    between atoms: _210  and  _211
REMARK   83  A    between atoms: _210  and  _213
REMARK   84  A    between atoms: _215  and  _217
REMARK   85  A    between atoms: _217  and  _218
REMARK   86  A    between atoms: _221  and  _223
REMARK   87  A    between atoms: _223  and  _224
REMARK   88  A    between atoms: _223  and  _226
REMARK   89  A    between atoms: _226  and  _227
REMARK   90  A    between atoms: _233  and  _235
REMARK   91  A    between atoms: _235  and  _236
REMARK   92  A    between atoms: _235  and  _238
REMARK   93  A    between atoms: _238  and  _239
REMARK   94  A    between atoms: _239  and  _240
REMARK   95  A    between atoms: _242  and  _244
REMARK   96  A    between atoms: _244  and  _245
REMARK   97  A    between atoms: _244  and  _247
REMARK   98  A    between atoms: _250  and  _252
REMARK   99  A    between atoms: _252  and  _253
REMARK  100  A    between atoms: _252  and  _255
REMARK  101  A    between atoms: _257  and  _259
REMARK  102  A    between atoms: _259  and  _260
REMARK  103  A    between atoms: _263  and  _265
REMARK  104  A    between atoms: _265  and  _266
REMARK  105  A    between atoms: _265  and  _268
REMARK  106  A    between atoms: _268  and  _269
REMARK  107  A    between atoms: _274  and  _275
REMARK  108  A    between atoms: _278  and  _279
REMARK  109  A    between atoms: _284  and  _286
REMARK  110  A    between atoms: _286  and  _287
REMARK  111  A    between atoms: _286  and  _289
REMARK  112  A    between atoms: _289  and  _290
REMARK  113  A    between atoms: _290  and  _291
REMARK  114  A    between atoms: _293  and  _295
REMARK  115  A    between atoms: _295  and  _296
REMARK  116  A    between atoms: _299  and  _301
REMARK  117  A    between atoms: _301  and  _302
REMARK  118  A    between atoms: _301  and  _304
REMARK  119  A    between atoms: _304  and  _305
REMARK  120  A    between atoms: _308  and  _310
REMARK  121  A    between atoms: _310  and  _311
REMARK  122  A    between atoms: _313  and  _315
REMARK  123  A    between atoms: _315  and  _316
REMARK  124  A    between atoms: _315  and  _318
REMARK  125  A    between atoms: _318  and  _319
REMARK  126  A    between atoms: _324  and  _326
REMARK  127  A    between atoms: _326  and  _327
REMARK  128  A    between atoms: _326  and  _329
REMARK  129  A    between atoms: _329  and  _330
REMARK  130  A    between atoms: _333  and  _335
REMARK  131  A    between atoms: _335  and  _336
REMARK  132  A    between atoms: _335  and  _338
REMARK  133  A    between atoms: _338  and  _339
REMARK  134  A    between atoms: _344  and  _345
REMARK  135  A    between atoms: _347  and  _349
REMARK  136  A    between atoms: _349  and  _350
REMARK  137  A    between atoms: _349  and  _352
REMARK  138  A    between atoms: _352  and  _353
REMARK  139  A    between atoms: _356  and  _358
REMARK  140  A    between atoms: _358  and  _359
REMARK  141  A    between atoms: _358  and  _361
REMARK  142  A    between atoms: _361  and  _362
REMARK  143  A    between atoms: _367  and  _368
REMARK  144  A    between atoms: _371  and  _372
REMARK  145  A    between atoms: _377  and  _379
REMARK  146  A    between atoms: _379  and  _380
REMARK  147  A    between atoms: _379  and  _382
REMARK  148  A    between atoms: _382  and  _383
REMARK  149  A    between atoms: _388  and  _389
REMARK  150  A    between atoms: _391  and  _393
REMARK  151  A    between atoms: _393  and  _394
REMARK  152  A    between atoms: _393  and  _396
REMARK  153  A    between atoms: _396  and  _397
REMARK  154  A    between atoms: _397  and  _398
REMARK  155  A    between atoms: _400  and  _402
REMARK  156  A    between atoms: _402  and  _403
REMARK  157  A    between atoms: _402  and  _405
REMARK  158  A    between atoms: _405  and  _406
REMARK  159  A    between atoms: _411  and  _412
REMARK  160  A    between atoms: _414  and  _416
REMARK  161  A    between atoms: _416  and  _417
REMARK  162  A    between atoms: _416  and  _419
REMARK  163  A    between atoms: _419  and  _420
REMARK  164  A    between atoms: _423  and  _425
REMARK  165  A    between atoms: _425  and  _426
REMARK  166  A    between atoms: _429  and  _431
REMARK  167  A    between atoms: _431  and  _432
REMARK  168  A    between atoms: _434  and  _436
REMARK  169  A    between atoms: _436  and  _437
REMARK  170  A    between atoms: _436  and  _439
REMARK  171  A    between atoms: _439  and  _440
REMARK  172  A    between atoms: _445  and  _446
REMARK  173  A    between atoms: _448  and  _450
REMARK  174  A    between atoms: _450  and  _451
REMARK  175  A    between atoms: _450  and  _453
REMARK  176  A    between atoms: _453  and  _454
REMARK  177  A    between atoms: _459  and  _461
REMARK  178  A    between atoms: _461  and  _462
REMARK  179  A    between atoms: _461  and  _464
REMARK  180  A    between atoms: _466  and  _468
REMARK  181  A    between atoms: _468  and  _469
REMARK  182  A    between atoms: _468  and  _471
REMARK  183  A    between atoms: _471  and  _472
REMARK  184  A    between atoms: _472  and  _473
REMARK  185  A    between atoms: _473  and  _474
REMARK  186  A    between atoms: _483  and  _485
REMARK  187  A    between atoms: _485  and  _486
REMARK  188  A    between atoms: _489  and  _491
REMARK  189  A    between atoms: _491  and  _492
REMARK  190  A    between atoms: _495  and  _497
REMARK  191  A    between atoms: _497  and  _498
REMARK  192  A    between atoms: _497  and  _500
REMARK  193  A    between atoms: _500  and  _501
REMARK  194  A    between atoms: _511  and  _513
REMARK  195  A    between atoms: _513  and  _514
REMARK  196  A    between atoms: _513  and  _516
REMARK  197  A    between atoms: _516  and  _517
REMARK  198  A    between atoms: _520  and  _522
REMARK  199  A    between atoms: _522  and  _523
REMARK  200  A    between atoms: _522  and  _525
REMARK  201  A    between atoms: _525  and  _526
REMARK  202  A    between atoms: _526  and  _527
REMARK  203  A    between atoms: _530  and  _532
REMARK  204  A    between atoms: _532  and  _533
REMARK  205  A    between atoms: _532  and  _535
REMARK  206  A    between atoms: _535  and  _536
REMARK  207  A    between atoms: _539  and  _541
REMARK  208  A    between atoms: _541  and  _542
REMARK  209  A    between atoms: _541  and  _544
REMARK  210  A    between atoms: _544  and  _545
REMARK  211  A    between atoms: _545  and  _546
REMARK  212  A    between atoms: _546  and  _547
REMARK  213  A    between atoms: _547  and  _548
REMARK  214  A    between atoms: _552  and  _554
REMARK  215  A    between atoms: _554  and  _555
REMARK  216  A    between atoms: _554  and  _557
REMARK  217  A    between atoms: _557  and  _558
REMARK  218  A    between atoms: _558  and  _559
REMARK  219  A    between atoms: _562  and  _564
REMARK  220  A    between atoms: _564  and  _565
REMARK  221  A    between atoms: _564  and  _567
REMARK  222  A    between atoms: _567  and  _568
REMARK  223  A    between atoms: _574  and  _576
REMARK  224  A    between atoms: _576  and  _577
REMARK  225  A    between atoms: _576  and  _579
REMARK  226  A    between atoms: _579  and  _580
REMARK  227  A    between atoms: _586  and  _588
REMARK  228  A    between atoms: _588  and  _589
REMARK  229  A    between atoms: _588  and  _591
REMARK  230  A    between atoms: _591  and  _592
REMARK  231  A    between atoms: _592  and  _593
REMARK  232  A    between atoms: _596  and  _598
REMARK  233  A    between atoms: _598  and  _599
REMARK  234  A    between atoms: _598  and  _601
REMARK  235  A    between atoms: _604  and  _606
REMARK  236  A    between atoms: _606  and  _607
REMARK  237  A    between atoms: _610  and  _612
REMARK  238  A    between atoms: _612  and  _613
REMARK  239  A    between atoms: _612  and  _615
REMARK  240  A    between atoms: _615  and  _616
REMARK  241  A    between atoms: _619  and  _621
REMARK  242  A    between atoms: _621  and  _622
REMARK  243  A    between atoms: _621  and  _624
REMARK  244  A    between atoms: _627  and  _629
REMARK  245  A    between atoms: _629  and  _630
REMARK  246  A    between atoms: _629  and  _632
REMARK  247  A    between atoms: _632  and  _633
REMARK                            x       y       z     vdW  Elec       q    Type
REMARK                         _______ _______ _______ _____ _____    ______ ____
ROOT
ATOM      1  CA  TRP A   2       6.673  23.746  22.029  0.00  0.00    +0.141 C 
ENDROOT
BRANCH   1   4
ATOM      2  C   ALA A   1       4.888  22.162  22.338  0.00  0.00    +0.238 C 
ATOM      3  O   ALA A   1       5.686  21.321  22.716  0.00  0.00    -0.274 OA
ATOM      4  N   TRP A   2       5.245  23.364  21.937  0.00  0.00    -0.298 N 
ATOM      5  H   TRP A   2       4.540  24.031  21.564  0.00  0.00    +0.150 HD
BRANCH   2   6
ATOM      6  CA  ALA A   1       3.403  21.828  22.320  0.00  0.00    +0.145 C 
ATOM      7  CB  ALA A   1       2.968  21.397  20.932  0.00  0.00    +0.028 C 
BRANCH   6   8
ATOM      8  N   ALA A   1       2.625  22.982  22.773  0.00  0.00    -0.238 NA
ATOM      9  H   ALA A   1       2.016  23.480  22.093  0.00  0.00    +0.142 HD
ENDBRANCH   6   8
ENDBRANCH   2   6
ENDBRANCH   1   4
BRANCH   1  10
ATOM     10  C   TRP A   2       7.126  23.868  23.477  0.00  0.00    +0.227 C 
ATOM     11  O   TRP A   2       8.277  23.484  23.790  0.00  0.00    -0.286 OA
ENDBRANCH   1  10
BRANCH   1  12
ATOM     12  CB  TRP A   2       6.932  25.040  21.278  0.00  0.00    +0.056 C 
BRANCH  12  13
ATOM     13  CG  TRP A   2       6.925  24.904  19.781  0.00  0.00    -0.002 A 
ATOM     14  CD1 TRP A   2       7.508  23.923  19.045  0.00  0.00    +0.068 A 
ATOM     15  NE1 TRP A   2       7.335  24.164  17.731  0.00  0.00    -0.352 N 
ATOM     16  CE2 TRP A   2       6.566  25.272  17.567  0.00  0.00    +0.056 A 
ATOM     17  CZ2 TRP A   2       6.100  25.893  16.388  0.00  0.00    +0.017 A 
ATOM     18  CH2 TRP A   2       5.359  27.019  16.550  0.00  0.00    +0.001 A 
ATOM     19  CZ3 TRP A   2       5.094  27.547  17.817  0.00  0.00    +0.000 A 
ATOM     20  CE3 TRP A   2       5.576  26.955  18.966  0.00  0.00    +0.001 A 
ATOM     21  HE1 TRP A   2       7.730  23.589  16.959  0.00  0.00    +0.166 HD
ATOM     22  CD2 TRP A   2       6.285  25.766  18.846  0.00  0.00    +0.013 A 
ENDBRANCH  12  13
ENDBRANCH   1  12
TORSDOF 6
REMARK  Name = ../refined-set-2016/4x5y/4x5y_pocket.pdb
REMARK  247 active torsions:
REMARK  status: ('A' for Active; 'I' for Inactive)
REMARK    1  A    between atoms: _1  and  _3
REMARK    2  A    between atoms: _3  and  _4
REMARK    3  A    between atoms: _3  and  _6
REMARK    4  A    between atoms: _6  and  _7
REMARK    5  A    between atoms: _10  and  _12
REMARK    6  A    between atoms: _12  and  _13
REMARK    7  A    between atoms: _12  and  _15
REMARK    8  A    between atoms: _15  and  _16
REMARK    9  A    between atoms: _18  and  _20
REMARK   10  A    between atoms: _20  and  _21
REMARK   11  A    between atoms: _20  and  _23
REMARK   12  A    between atoms: _23  and  _24
REMARK   13  A    between atoms: _26  and  _28
REMARK   14  A    between atoms: _28  and  _29
REMARK   15  A    between atoms: _31  and  _33
REMARK   16  A    between atoms: _33  and  _34
REMARK   17  A    between atoms: _37  and  _39
REMARK   18  A    between atoms: _39  and  _40
REMARK   19  A    between atoms: _39  and  _42
REMARK   20  A    between atoms: _42  and  _43
REMARK   21  A    between atoms: _49  and  _51
REMARK   22  A    between atoms: _51  and  _52
REMARK   23  A    between atoms: _51  and  _54
REMARK   24  A    between atoms: _54  and  _55
REMARK   25  A    between atoms: _58  and  _60
REMARK   26  A    between atoms: _60  and  _61
REMARK   27  A    between atoms: _64  and  _66
REMARK   28  A    between atoms: _66  and  _67
REMARK   29  A    between atoms: _66  and  _69
REMARK   30  A    between atoms: _69  and  _70
REMARK   31  A    between atoms: _73  and  _75
REMARK   32  A    between atoms: _75  and  _76
REMARK   33  A    between atoms: _75  and  _78
REMARK   34  A    between atoms: _78  and  _79
REMARK   35  A    between atoms: _81  and  _83
REMARK   36  A    between atoms: _83  and  _84
REMARK   37  A    between atoms: _83  and  _86
REMARK   38  A    between atoms: _86  and  _87
REMARK   39  A    between atoms: _87  and  _88
REMARK   40  A    between atoms: _91  and  _93
REMARK   41  A    between atoms: _93  and  _94
REMARK   42  A    between atoms: _93  and  _96
REMARK   43  A    between atoms: _96  and  _97
REMARK   44  A    between atoms: _100  and  _102
REMARK   45  A    between atoms: _102  and  _103
REMARK   46  A    between atoms: _102  and  _105
REMARK   47  A    between atoms: _105  and  _106
REMARK   48  A    between atoms: _111  and  _113
REMARK   49  A    between atoms: _113  and  _114
REMARK   50  A    between atoms: _117  and  _119
REMARK   51  A    between atoms: _119  and  _120
REMARK   52  A    between atoms: _119  and  _122
REMARK   53  A    between atoms: _122  and  _123
REMARK   54  A    between atoms: _133  and  _135
REMARK   55  A    between atoms: _135  and  _136
REMARK   56  A    between atoms: _135  and  _138
REMARK   57  A    between atoms: _138  and  _139
REMARK   58  A    between atoms: _142  and  _144
REMARK   59  A    between atoms: _144  and  _145
REMARK   60  A    between atoms: _144  and  _147
REMARK   61  A    between atoms: _147  and  _148
REMARK   62  A    between atoms: _158  and  _160
REMARK   63  A    between atoms: _160  and  _161
REMARK   64  A    between atoms: _160  and  _163
REMARK   65  A    between atoms: _163  and  _164
REMARK   66  A    between atoms: _169  and  _171
REMARK   67  A    between atoms: _171  and  _172
REMARK   68  A    between atoms: _174  and  _176
REMARK   69  A    between atoms: _176  and  _177
REMARK   70  A    between atoms: _176  and  _179
REMARK   71  A    between atoms: _179  and  _180
REMARK   72  A    between atoms: _190  and  _192
REMARK   73  A    between atoms: _192  and  _193
REMARK   74  A    between atoms: _192  and  _195
REMARK   75  A    between atoms: _195  and  _196
REMARK   76  A    between atoms: _199  and  _201
REMARK   77  A    between atoms: _201  and  _202
REMARK   78  A    between atoms: _201  and  _204
REMARK   79  A    between atoms: _204  and  _205
REMARK   80  A    between atoms: _205  and  _206
REMARK   81  A    between atoms: _208  and  _210
REMARK   82  A    between atoms: _210  and  _211
REMARK   83  A    between atoms: _210  and  _213
REMARK   84  A    between atoms: _215  and  _217
REMARK   85  A    between atoms: _217  and  _218
REMARK   86  A    between atoms: _221  and  _223
REMARK   87  A    between atoms: _223  and  _224
REMARK   88  A    between atoms: _223  and  _226
REMARK   89  A    between atoms: _226  and  _227
REMARK   90  A    between atoms: _233  and  _235
REMARK   91  A    between atoms: _235  and  _236
REMARK   92  A    between atoms: _235  and  _238
REMARK   93  A    between atoms: _238  and  _239
REMARK   94  A    between atoms: _239  and  _240
REMARK   95  A    between atoms: _242  and  _244
REMARK   96  A    between atoms: _244  and  _245
REMARK   97  A    between atoms: _244  and  _247
REMARK   98  A    between atoms: _250  and  _252
REMARK   99  A    between atoms: _252  and  _253
REMARK  100  A    between atoms: _252  and  _255
REMARK  101  A    between atoms: _257  and  _259
REMARK  102  A    between atoms: _259  and  _260
REMARK  103  A    between atoms: _263  and  _265
REMARK  104  A    between atoms: _265  and  _266
REMARK  105  A    between atoms: _265  and  _268
REMARK  106  A    between atoms: _268  and  _269
REMARK  107  A    between atoms: _274  and  _275
REMARK  108  A    between atoms: _278  and  _279
REMARK  109  A    between atoms: _284  and  _286
REMARK  110  A    between atoms: _286  and  _287
REMARK  111  A    between atoms: _286  and  _289
REMARK  112  A    between atoms: _289  and  _290
REMARK  113  A    between atoms: _290  and  _291
REMARK  114  A    between atoms: _293  and  _295
REMARK  115  A    between atoms: _295  and  _296
REMARK  116  A    between atoms: _299  and  _301
REMARK  117  A    between atoms: _301  and  _302
REMARK  118  A    between atoms: _301  and  _304
REMARK  119  A    between atoms: _304  and  _305
REMARK  120  A    between atoms: _308  and  _310
REMARK  121  A    between atoms: _310  and  _311
REMARK  122  A    between atoms: _313  and  _315
REMARK  123  A    between atoms: _315  and  _316
REMARK  124  A    between atoms: _315  and  _318
REMARK  125  A    between atoms: _318  and  _319
REMARK  126  A    between atoms: _324  and  _326
REMARK  127  A    between atoms: _326  and  _327
REMARK  128  A    between atoms: _326  and  _329
REMARK  129  A    between atoms: _329  and  _330
REMARK  130  A    between atoms: _333  and  _335
REMARK  131  A    between atoms: _335  and  _336
REMARK  132  A    between atoms: _335  and  _338
REMARK  133  A    between atoms: _338  and  _339
REMARK  134  A    between atoms: _344  and  _345
REMARK  135  A    between atoms: _347  and  _349
REMARK  136  A    between atoms: _349  and  _350
REMARK  137  A    between atoms: _349  and  _352
REMARK  138  A    between atoms: _352  and  _353
REMARK  139  A    between atoms: _356  and  _358
REMARK  140  A    between atoms: _358  and  _359
REMARK  141  A    between atoms: _358  and  _361
REMARK  142  A    between atoms: _361  and  _362
REMARK  143  A    between atoms: _367  and  _368
REMARK  144  A    between atoms: _371  and  _372
REMARK  145  A    between atoms: _377  and  _379
REMARK  146  A    between atoms: _379  and  _380
REMARK  147  A    between atoms: _379  and  _382
REMARK  148  A    between atoms: _382  and  _383
REMARK  149  A    between atoms: _388  and  _389
REMARK  150  A    between atoms: _391  and  _393
REMARK  151  A    between atoms: _393  and  _394
REMARK  152  A    between atoms: _393  and  _396
REMARK  153  A    between atoms: _396  and  _397
REMARK  154  A    between atoms: _397  and  _398
REMARK  155  A    between atoms: _400  and  _402
REMARK  156  A    between atoms: _402  and  _403
REMARK  157  A    between atoms: _402  and  _405
REMARK  158  A    between atoms: _405  and  _406
REMARK  159  A    between atoms: _411  and  _412
REMARK  160  A    between atoms: _414  and  _416
REMARK  161  A    between atoms: _416  and  _417
REMARK  162  A    between atoms: _416  and  _419
REMARK  163  A    between atoms: _419  and  _420
REMARK  164  A    between atoms: _423  and  _425
REMARK  165  A    between atoms: _425  and  _426
REMARK  166  A    between atoms: _429  and  _431
REMARK  167  A    between atoms: _431  and  _432
REMARK  168  A    between atoms: _434  and  _436
REMARK  169  A    between atoms: _436  and  _437
REMARK  170  A    between atoms: _436  and  _439
REMARK  171  A    between atoms: _439  and  _440
REMARK  172  A    between atoms: _445  and  _446
REMARK  173  A    between atoms: _448  and  _450
REMARK  174  A    between atoms: _450  and  _451
REMARK  175  A    between atoms: _450  and  _453
REMARK  176  A    between atoms: _453  and  _454
REMARK  177  A    between atoms: _459  and  _461
REMARK  178  A    between atoms: _461  and  _462
REMARK  179  A    between atoms: _461  and  _464
REMARK  180  A    between atoms: _466  and  _468
REMARK  181  A    between atoms: _468  and  _469
REMARK  182  A    between atoms: _468  and  _471
REMARK  183  A    between atoms: _471  and  _472
REMARK  184  A    between atoms: _472  and  _473
REMARK  185  A    between atoms: _473  and  _474
REMARK  186  A    between atoms: _483  and  _485
REMARK  187  A    between atoms: _485  and  _486
REMARK  188  A    between atoms: _489  and  _491
REMARK  189  A    between atoms: _491  and  _492
REMARK  190  A    between atoms: _495  and  _497
REMARK  191  A    between atoms: _497  and  _498
REMARK  192  A    between atoms: _497  and  _500
REMARK  193  A    between atoms: _500  and  _501
REMARK  194  A    between atoms: _511  and  _513
REMARK  195  A    between atoms: _513  and  _514
REMARK  196  A    between atoms: _513  and  _516
REMARK  197  A    between atoms: _516  and  _517
REMARK  198  A    between atoms: _520  and  _522
REMARK  199  A    between atoms: _522  and  _523
REMARK  200  A    between atoms: _522  and  _525
REMARK  201  A    between atoms: _525  and  _526
REMARK  202  A    between atoms: _526  and  _527
REMARK  203  A    between atoms: _530  and  _532
REMARK  204  A    between atoms: _532  and  _533
REMARK  205  A    between atoms: _532  and  _535
REMARK  206  A    between atoms: _535  and  _536
REMARK  207  A    between atoms: _539  and  _541
REMARK  208  A    between atoms: _541  and  _542
REMARK  209  A    between atoms: _541  and  _544
REMARK  210  A    between atoms: _544  and  _545
REMARK  211  A    between atoms: _545  and  _546
REMARK  212  A    between atoms: _546  and  _547
REMARK  213  A    between atoms: _547  and  _548
REMARK  214  A    between atoms: _552  and  _554
REMARK  215  A    between atoms: _554  and  _555
REMARK  216  A    between atoms: _554  and  _557
REMARK  217  A    between atoms: _557  and  _558
REMARK  218  A    between atoms: _558  and  _559
REMARK  219  A    between atoms: _562  and  _564
REMARK  220  A    between atoms: _564  and  _565
REMARK  221  A    between atoms: _564  and  _567
REMARK  222  A    between atoms: _567  and  _568
REMARK  223  A    between atoms: _574  and  _576
REMARK  224  A    between atoms: _576  and  _577
REMARK  225  A    between atoms: _576  and  _579
REMARK  226  A    between atoms: _579  and  _580
REMARK  227  A    between atoms: _586  and  _588
REMARK  228  A    between atoms: _588  and  _589
REMARK  229  A    between atoms: _588  and  _591
REMARK  230  A    between atoms: _591  and  _592
REMARK  231  A    between atoms: _592  and  _593
REMARK  232  A    between atoms: _596  and  _598
REMARK  233  A    between atoms: _598  and  _599
REMARK  234  A    between atoms: _598  and  _601
REMARK  235  A    between atoms: _604  and  _606
REMARK  236  A    between atoms: _606  and  _607
REMARK  237  A    between atoms: _610  and  _612
REMARK  238  A    between atoms: _612  and  _613
REMARK  239  A    between atoms: _612  and  _615
REMARK  240  A    between atoms: _615  and  _616
REMARK  241  A    between atoms: _619  and  _621
REMARK  242  A    between atoms: _621  and  _622
REMARK  243  A    between atoms: _621  and  _624
REMARK  244  A    between atoms: _627  and  _629
REMARK  245  A    between atoms: _629  and  _630
REMARK  246  A    between atoms: _629  and  _632
REMARK  247  A    between atoms: _632  and  _633
REMARK                            x       y       z     vdW  Elec       q    Type
REMARK                         _______ _______ _______ _____ _____    ______ ____
ROOT
ATOM      1  CA  THR A   1       9.236  20.024  23.726  0.00  0.00    +0.160 C 
ENDROOT
BRANCH   1   2
ATOM      2  N   THR A   1       7.974  20.462  24.342  0.00  0.00    -0.237 NA
ATOM      3  H   THR A   1       7.373  21.135  23.824  0.00  0.00    +0.142 HD
ENDBRANCH   1   2
BRANCH   1   4
ATOM      4  C   THR A   1      10.345  20.470  24.693  0.00  0.00    +0.227 C 
ATOM      5  O   THR A   1      11.320  19.701  24.983  0.00  0.00    -0.287 OA
ENDBRANCH   1   4
BRANCH   1   6
ATOM      6  CB  THR A   1       9.570  20.528  22.285  0.00  0.00    +0.134 C 
ATOM      7  CG2 THR A   1       8.429  20.315  21.348  0.00  0.00    +0.034 C 
BRANCH   6   8
ATOM      8  OG1 THR A   1       9.862  21.933  22.244  0.00  0.00    -0.383 OA
ATOM      9  HG1 THR A   1       9.078  22.442  22.570  0.00  0.00    +0.210 HD
ENDBRANCH   6   8
ENDBRANCH   1   6
TORSDOF 4
REMARK  Name = ../refined-set-2016/4x5y/4x5y_pocket.pdb
REMARK  247 active torsions:
REMARK  status: ('A' for Active; 'I' for Inactive)
REMARK    1  A    between atoms: _1  and  _3
REMARK    2  A    between atoms: _3  and  _4
REMARK    3  A    between atoms: _3  and  _6
REMARK    4  A    between atoms: _6  and  _7
REMARK    5  A    between atoms: _10  and  _12
REMARK    6  A    between atoms: _12  and  _13
REMARK    7  A    between atoms: _12  and  _15
REMARK    8  A    between atoms: _15  and  _16
REMARK    9  A    between atoms: _18  and  _20
REMARK   10  A    between atoms: _20  and  _21
REMARK   11  A    between atoms: _20  and  _23
REMARK   12  A    between atoms: _23  and  _24
REMARK   13  A    between atoms: _26  and  _28
REMARK   14  A    between atoms: _28  and  _29
REMARK   15  A    between atoms: _31  and  _33
REMARK   16  A    between atoms: _33  and  _34
REMARK   17  A    between atoms: _37  and  _39
REMARK   18  A    between atoms: _39  and  _40
REMARK   19  A    between atoms: _39  and  _42
REMARK   20  A    between atoms: _42  and  _43
REMARK   21  A    between atoms: _49  and  _51
REMARK   22  A    between atoms: _51  and  _52
REMARK   23  A    between atoms: _51  and  _54
REMARK   24  A    between atoms: _54  and  _55
REMARK   25  A    between atoms: _58  and  _60
REMARK   26  A    between atoms: _60  and  _61
REMARK   27  A    between atoms: _64  and  _66
REMARK   28  A    between atoms: _66  and  _67
REMARK   29  A    between atoms: _66  and  _69
REMARK   30  A    between atoms: _69  and  _70
REMARK   31  A    between atoms: _73  and  _75
REMARK   32  A    between atoms: _75  and  _76
REMARK   33  A    between atoms: _75  and  _78
REMARK   34  A    between atoms: _78  and  _79
REMARK   35  A    between atoms: _81  and  _83
REMARK   36  A    between atoms: _83  and  _84
REMARK   37  A    between atoms: _83  and  _86
REMARK   38  A    between atoms: _86  and  _87
REMARK   39  A    between atoms: _87  and  _88
REMARK   40  A    between atoms: _91  and  _93
REMARK   41  A    between atoms: _93  and  _94
REMARK   42  A    between atoms: _93  and  _96
REMARK   43  A    between atoms: _96  and  _97
REMARK   44  A    between atoms: _100  and  _102
REMARK   45  A    between atoms: _102  and  _103
REMARK   46  A    between atoms: _102  and  _105
REMARK   47  A    between atoms: _105  and  _106
REMARK   48  A    between atoms: _111  and  _113
REMARK   49  A    between atoms: _113  and  _114
REMARK   50  A    between atoms: _117  and  _119
REMARK   51  A    between atoms: _119  and  _120
REMARK   52  A    between atoms: _119  and  _122
REMARK   53  A    between atoms: _122  and  _123
REMARK   54  A    between atoms: _133  and  _135
REMARK   55  A    between atoms: _135  and  _136
REMARK   56  A    between atoms: _135  and  _138
REMARK   57  A    between atoms: _138  and  _139
REMARK   58  A    between atoms: _142  and  _144
REMARK   59  A    between atoms: _144  and  _145
REMARK   60  A    between atoms: _144  and  _147
REMARK   61  A    between atoms: _147  and  _148
REMARK   62  A    between atoms: _158  and  _160
REMARK   63  A    between atoms: _160  and  _161
REMARK   64  A    between atoms: _160  and  _163
REMARK   65  A    between atoms: _163  and  _164
REMARK   66  A    between atoms: _169  and  _171
REMARK   67  A    between atoms: _171  and  _172
REMARK   68  A    between atoms: _174  and  _176
REMARK   69  A    between atoms: _176  and  _177
REMARK   70  A    between atoms: _176  and  _179
REMARK   71  A    between atoms: _179  and  _180
REMARK   72  A    between atoms: _190  and  _192
REMARK   73  A    between atoms: _192  and  _193
REMARK   74  A    between atoms: _192  and  _195
REMARK   75  A    between atoms: _195  and  _196
REMARK   76  A    between atoms: _199  and  _201
REMARK   77  A    between atoms: _201  and  _202
REMARK   78  A    between atoms: _201  and  _204
REMARK   79  A    between atoms: _204  and  _205
REMARK   80  A    between atoms: _205  and  _206
REMARK   81  A    between atoms: _208  and  _210
REMARK   82  A    between atoms: _210  and  _211
REMARK   83  A    between atoms: _210  and  _213
REMARK   84  A    between atoms: _215  and  _217
REMARK   85  A    between atoms: _217  and  _218
REMARK   86  A    between atoms: _221  and  _223
REMARK   87  A    between atoms: _223  and  _224
REMARK   88  A    between atoms: _223  and  _226
REMARK   89  A    between atoms: _226  and  _227
REMARK   90  A    between atoms: _233  and  _235
REMARK   91  A    between atoms: _235  and  _236
REMARK   92  A    between atoms: _235  and  _238
REMARK   93  A    between atoms: _238  and  _239
REMARK   94  A    between atoms: _239  and  _240
REMARK   95  A    between atoms: _242  and  _244
REMARK   96  A    between atoms: _244  and  _245
REMARK   97  A    between atoms: _244  and  _247
REMARK   98  A    between atoms: _250  and  _252
REMARK   99  A    between atoms: _252  and  _253
REMARK  100  A    between atoms: _252  and  _255
REMARK  101  A    between atoms: _257  and  _259
REMARK  102  A    between atoms: _259  and  _260
REMARK  103  A    between atoms: _263  and  _265
REMARK  104  A    between atoms: _265  and  _266
REMARK  105  A    between atoms: _265  and  _268
REMARK  106  A    between atoms: _268  and  _269
REMARK  107  A    between atoms: _274  and  _275
REMARK  108  A    between atoms: _278  and  _279
REMARK  109  A    between atoms: _284  and  _286
REMARK  110  A    between atoms: _286  and  _287
REMARK  111  A    between atoms: _286  and  _289
REMARK  112  A    between atoms: _289  and  _290
REMARK  113  A    between atoms: _290  and  _291
REMARK  114  A    between atoms: _293  and  _295
REMARK  115  A    between atoms: _295  and  _296
REMARK  116  A    between atoms: _299  and  _301
REMARK  117  A    between atoms: _301  and  _302
REMARK  118  A    between atoms: _301  and  _304
REMARK  119  A    between atoms: _304  and  _305
REMARK  120  A    between atoms: _308  and  _310
REMARK  121  A    between atoms: _310  and  _311
REMARK  122  A    between atoms: _313  and  _315
REMARK  123  A    between atoms: _315  and  _316
REMARK  124  A    between atoms: _315  and  _318
REMARK  125  A    between atoms: _318  and  _319
REMARK  126  A    between atoms: _324  and  _326
REMARK  127  A    between atoms: _326  and  _327
REMARK  128  A    between atoms: _326  and  _329
REMARK  129  A    between atoms: _329  and  _330
REMARK  130  A    between atoms: _333  and  _335
REMARK  131  A    between atoms: _335  and  _336
REMARK  132  A    between atoms: _335  and  _338
REMARK  133  A    between atoms: _338  and  _339
REMARK  134  A    between atoms: _344  and  _345
REMARK  135  A    between atoms: _347  and  _349
REMARK  136  A    between atoms: _349  and  _350
REMARK  137  A    between atoms: _349  and  _352
REMARK  138  A    between atoms: _352  and  _353
REMARK  139  A    between atoms: _356  and  _358
REMARK  140  A    between atoms: _358  and  _359
REMARK  141  A    between atoms: _358  and  _361
REMARK  142  A    between atoms: _361  and  _362
REMARK  143  A    between atoms: _367  and  _368
REMARK  144  A    between atoms: _371  and  _372
REMARK  145  A    between atoms: _377  and  _379
REMARK  146  A    between atoms: _379  and  _380
REMARK  147  A    between atoms: _379  and  _382
REMARK  148  A    between atoms: _382  and  _383
REMARK  149  A    between atoms: _388  and  _389
REMARK  150  A    between atoms: _391  and  _393
REMARK  151  A    between atoms: _393  and  _394
REMARK  152  A    between atoms: _393  and  _396
REMARK  153  A    between atoms: _396  and  _397
REMARK  154  A    between atoms: _397  and  _398
REMARK  155  A    between atoms: _400  and  _402
REMARK  156  A    between atoms: _402  and  _403
REMARK  157  A    between atoms: _402  and  _405
REMARK  158  A    between atoms: _405  and  _406
REMARK  159  A    between atoms: _411  and  _412
REMARK  160  A    between atoms: _414  and  _416
REMARK  161  A    between atoms: _416  and  _417
REMARK  162  A    between atoms: _416  and  _419
REMARK  163  A    between atoms: _419  and  _420
REMARK  164  A    between atoms: _423  and  _425
REMARK  165  A    between atoms: _425  and  _426
REMARK  166  A    between atoms: _429  and  _431
REMARK  167  A    between atoms: _431  and  _432
REMARK  168  A    between atoms: _434  and  _436
REMARK  169  A    between atoms: _436  and  _437
REMARK  170  A    between atoms: _436  and  _439
REMARK  171  A    between atoms: _439  and  _440
REMARK  172  A    between atoms: _445  and  _446
REMARK  173  A    between atoms: _448  and  _450
REMARK  174  A    between atoms: _450  and  _451
REMARK  175  A    between atoms: _450  and  _453
REMARK  176  A    between atoms: _453  and  _454
REMARK  177  A    between atoms: _459  and  _461
REMARK  178  A    between atoms: _461  and  _462
REMARK  179  A    between atoms: _461  and  _464
REMARK  180  A    between atoms: _466  and  _468
REMARK  181  A    between atoms: _468  and  _469
REMARK  182  A    between atoms: _468  and  _471
REMARK  183  A    between atoms: _471  and  _472
REMARK  184  A    between atoms: _472  and  _473
REMARK  185  A    between atoms: _473  and  _474
REMARK  186  A    between atoms: _483  and  _485
REMARK  187  A    between atoms: _485  and  _486
REMARK  188  A    between atoms: _489  and  _491
REMARK  189  A    between atoms: _491  and  _492
REMARK  190  A    between atoms: _495  and  _497
REMARK  191  A    between atoms: _497  and  _498
REMARK  192  A    between atoms: _497  and  _500
REMARK  193  A    between atoms: _500  and  _501
REMARK  194  A    between atoms: _511  and  _513
REMARK  195  A    between atoms: _513  and  _514
REMARK  196  A    between atoms: _513  and  _516
REMARK  197  A    between atoms: _516  and  _517
REMARK  198  A    between atoms: _520  and  _522
REMARK  199  A    between atoms: _522  and  _523
REMARK  200  A    between atoms: _522  and  _525
REMARK  201  A    between atoms: _525  and  _526
REMARK  202  A    between atoms: _526  and  _527
REMARK  203  A    between atoms: _530  and  _532
REMARK  204  A    between atoms: _532  and  _533
REMARK  205  A    between atoms: _532  and  _535
REMARK  206  A    between atoms: _535  and  _536
REMARK  207  A    between atoms: _539  and  _541
REMARK  208  A    between atoms: _541  and  _542
REMARK  209  A    between atoms: _541  and  _544
REMARK  210  A    between atoms: _544  and  _545
REMARK  211  A    between atoms: _545  and  _546
REMARK  212  A    between atoms: _546  and  _547
REMARK  213  A    between atoms: _547  and  _548
REMARK  214  A    between atoms: _552  and  _554
REMARK  215  A    between atoms: _554  and  _555
REMARK  216  A    between atoms: _554  and  _557
REMARK  217  A    between atoms: _557  and  _558
REMARK  218  A    between atoms: _558  and  _559
REMARK  219  A    between atoms: _562  and  _564
REMARK  220  A    between atoms: _564  and  _565
REMARK  221  A    between atoms: _564  and  _567
REMARK  222  A    between atoms: _567  and  _568
REMARK  223  A    between atoms: _574  and  _576
REMARK  224  A    between atoms: _576  and  _577
REMARK  225  A    between atoms: _576  and  _579
REMARK  226  A    between atoms: _579  and  _580
REMARK  227  A    between atoms: _586  and  _588
REMARK  228  A    between atoms: _588  and  _589
REMARK  229  A    between atoms: _588  and  _591
REMARK  230  A    between atoms: _591  and  _592
REMARK  231  A    between atoms: _592  and  _593
REMARK  232  A    between atoms: _596  and  _598
REMARK  233  A    between atoms: _598  and  _599
REMARK  234  A    between atoms: _598  and  _601
REMARK  235  A    between atoms: _604  and  _606
REMARK  236  A    between atoms: _606  and  _607
REMARK  237  A    between atoms: _610  and  _612
REMARK  238  A    between atoms: _612  and  _613
REMARK  239  A    between atoms: _612  and  _615
REMARK  240  A    between atoms: _615  and  _616
REMARK  241  A    between atoms: _619  and  _621
REMARK  242  A    between atoms: _621  and  _622
REMARK  243  A    between atoms: _621  and  _624
REMARK  244  A    between atoms: _627  and  _629
REMARK  245  A    between atoms: _629  and  _630
REMARK  246  A    between atoms: _629  and  _632
REMARK  247  A    between atoms: _632  and  _633
REMARK                            x       y       z     vdW  Elec       q    Type
REMARK                         _______ _______ _______ _____ _____    ______ ____
ROOT
ATOM      1  C   GLU A   1      19.159  19.312  15.825  0.00  0.00    +0.238 C 
ATOM      2  N   ILE A   2      19.180  18.936  17.108  0.00  0.00    -0.298 N 
ATOM      3  H   ILE A   2      19.950  18.341  17.475  0.00  0.00    +0.150 HD
ATOM      4  O   GLU A   1      18.340  20.088  15.339  0.00  0.00    -0.274 OA
ENDROOT
BRANCH   1   5
ATOM      5  CA  GLU A   1      20.317  18.795  14.949  0.00  0.00    +0.145 C 
BRANCH   5   6
ATOM      6  N   GLU A   1      21.606  18.791  15.702  0.00  0.00    -0.238 NA
ATOM      7  H   GLU A   1      22.088  17.894  15.913  0.00  0.00    +0.142 HD
ENDBRANCH   5   6
BRANCH   5   8
ATOM      8  CB  GLU A   1      19.958  17.434  14.376  0.00  0.00    +0.038 C 
BRANCH   8   9
ATOM      9  CG  GLU A   1      20.841  17.052  13.189  0.00  0.00    +0.116 C 
BRANCH   9  10
ATOM     10  CD  GLU A   1      20.874  18.113  12.086  0.00  0.00    +0.365 C 
ATOM     11  OE2 GLU A   1      22.005  18.525  11.719  0.00  0.00    -0.246 OA
ATOM     12  OE1 GLU A   1      19.803  18.537  11.615  0.00  0.00    -0.246 OA
ENDBRANCH   9  10
ENDBRANCH   8   9
ENDBRANCH   5   8
ENDBRANCH   1   5
BRANCH   2  13
ATOM     13  CA  ILE A   2      18.070  19.392  18.004  0.00  0.00    +0.137 C 
BRANCH  13  14
ATOM     14  CB  ILE A   2      17.817  18.448  19.199  0.00  0.00    +0.026 C 
ATOM     15  CG2 ILE A   2      18.869  18.679  20.281  0.00  0.00    +0.002 C 
BRANCH  14  16
ATOM     16  CG1 ILE A   2      16.336  18.592  19.682  0.00  0.00    +0.002 C 
ATOM     17  CD1 ILE A   2      15.309  18.176  18.686  0.00  0.00    +0.000 C 
ENDBRANCH  14  16
ENDBRANCH  13  14
BRANCH  13  18
ATOM     18  C   ILE A   2      18.264  20.852  18.401  0.00  0.00    +0.227 C 
ATOM     19  O   ILE A   2      17.283  21.598  18.582  0.00  0.00    -0.286 OA
ENDBRANCH  13  18
ENDBRANCH   2  13
TORSDOF 9
REMARK  Name = ../refined-set-2016/4x5y/4x5y_pocket.pdb
REMARK  247 active torsions:
REMARK  status: ('A' for Active; 'I' for Inactive)
REMARK    1  A    between atoms: _1  and  _3
REMARK    2  A    between atoms: _3  and  _4
REMARK    3  A    between atoms: _3  and  _6
REMARK    4  A    between atoms: _6  and  _7
REMARK    5  A    between atoms: _10  and  _12
REMARK    6  A    between atoms: _12  and  _13
REMARK    7  A    between atoms: _12  and  _15
REMARK    8  A    between atoms: _15  and  _16
REMARK    9  A    between atoms: _18  and  _20
REMARK   10  A    between atoms: _20  and  _21
REMARK   11  A    between atoms: _20  and  _23
REMARK   12  A    between atoms: _23  and  _24
REMARK   13  A    between atoms: _26  and  _28
REMARK   14  A    between atoms: _28  and  _29
REMARK   15  A    between atoms: _31  and  _33
REMARK   16  A    between atoms: _33  and  _34
REMARK   17  A    between atoms: _37  and  _39
REMARK   18  A    between atoms: _39  and  _40
REMARK   19  A    between atoms: _39  and  _42
REMARK   20  A    between atoms: _42  and  _43
REMARK   21  A    between atoms: _49  and  _51
REMARK   22  A    between atoms: _51  and  _52
REMARK   23  A    between atoms: _51  and  _54
REMARK   24  A    between atoms: _54  and  _55
REMARK   25  A    between atoms: _58  and  _60
REMARK   26  A    between atoms: _60  and  _61
REMARK   27  A    between atoms: _64  and  _66
REMARK   28  A    between atoms: _66  and  _67
REMARK   29  A    between atoms: _66  and  _69
REMARK   30  A    between atoms: _69  and  _70
REMARK   31  A    between atoms: _73  and  _75
REMARK   32  A    between atoms: _75  and  _76
REMARK   33  A    between atoms: _75  and  _78
REMARK   34  A    between atoms: _78  and  _79
REMARK   35  A    between atoms: _81  and  _83
REMARK   36  A    between atoms: _83  and  _84
REMARK   37  A    between atoms: _83  and  _86
REMARK   38  A    between atoms: _86  and  _87
REMARK   39  A    between atoms: _87  and  _88
REMARK   40  A    between atoms: _91  and  _93
REMARK   41  A    between atoms: _93  and  _94
REMARK   42  A    between atoms: _93  and  _96
REMARK   43  A    between atoms: _96  and  _97
REMARK   44  A    between atoms: _100  and  _102
REMARK   45  A    between atoms: _102  and  _103
REMARK   46  A    between atoms: _102  and  _105
REMARK   47  A    between atoms: _105  and  _106
REMARK   48  A    between atoms: _111  and  _113
REMARK   49  A    between atoms: _113  and  _114
REMARK   50  A    between atoms: _117  and  _119
REMARK   51  A    between atoms: _119  and  _120
REMARK   52  A    between atoms: _119  and  _122
REMARK   53  A    between atoms: _122  and  _123
REMARK   54  A    between atoms: _133  and  _135
REMARK   55  A    between atoms: _135  and  _136
REMARK   56  A    between atoms: _135  and  _138
REMARK   57  A    between atoms: _138  and  _139
REMARK   58  A    between atoms: _142  and  _144
REMARK   59  A    between atoms: _144  and  _145
REMARK   60  A    between atoms: _144  and  _147
REMARK   61  A    between atoms: _147  and  _148
REMARK   62  A    between atoms: _158  and  _160
REMARK   63  A    between atoms: _160  and  _161
REMARK   64  A    between atoms: _160  and  _163
REMARK   65  A    between atoms: _163  and  _164
REMARK   66  A    between atoms: _169  and  _171
REMARK   67  A    between atoms: _171  and  _172
REMARK   68  A    between atoms: _174  and  _176
REMARK   69  A    between atoms: _176  and  _177
REMARK   70  A    between atoms: _176  and  _179
REMARK   71  A    between atoms: _179  and  _180
REMARK   72  A    between atoms: _190  and  _192
REMARK   73  A    between atoms: _192  and  _193
REMARK   74  A    between atoms: _192  and  _195
REMARK   75  A    between atoms: _195  and  _196
REMARK   76  A    between atoms: _199  and  _201
REMARK   77  A    between atoms: _201  and  _202
REMARK   78  A    between atoms: _201  and  _204
REMARK   79  A    between atoms: _204  and  _205
REMARK   80  A    between atoms: _205  and  _206
REMARK   81  A    between atoms: _208  and  _210
REMARK   82  A    between atoms: _210  and  _211
REMARK   83  A    between atoms: _210  and  _213
REMARK   84  A    between atoms: _215  and  _217
REMARK   85  A    between atoms: _217  and  _218
REMARK   86  A    between atoms: _221  and  _223
REMARK   87  A    between atoms: _223  and  _224
REMARK   88  A    between atoms: _223  and  _226
REMARK   89  A    between atoms: _226  and  _227
REMARK   90  A    between atoms: _233  and  _235
REMARK   91  A    between atoms: _235  and  _236
REMARK   92  A    between atoms: _235  and  _238
REMARK   93  A    between atoms: _238  and  _239
REMARK   94  A    between atoms: _239  and  _240
REMARK   95  A    between atoms: _242  and  _244
REMARK   96  A    between atoms: _244  and  _245
REMARK   97  A    between atoms: _244  and  _247
REMARK   98  A    between atoms: _250  and  _252
REMARK   99  A    between atoms: _252  and  _253
REMARK  100  A    between atoms: _252  and  _255
REMARK  101  A    between atoms: _257  and  _259
REMARK  102  A    between atoms: _259  and  _260
REMARK  103  A    between atoms: _263  and  _265
REMARK  104  A    between atoms: _265  and  _266
REMARK  105  A    between atoms: _265  and  _268
REMARK  106  A    between atoms: _268  and  _269
REMARK  107  A    between atoms: _274  and  _275
REMARK  108  A    between atoms: _278  and  _279
REMARK  109  A    between atoms: _284  and  _286
REMARK  110  A    between atoms: _286  and  _287
REMARK  111  A    between atoms: _286  and  _289
REMARK  112  A    between atoms: _289  and  _290
REMARK  113  A    between atoms: _290  and  _291
REMARK  114  A    between atoms: _293  and  _295
REMARK  115  A    between atoms: _295  and  _296
REMARK  116  A    between atoms: _299  and  _301
REMARK  117  A    between atoms: _301  and  _302
REMARK  118  A    between atoms: _301  and  _304
REMARK  119  A    between atoms: _304  and  _305
REMARK  120  A    between atoms: _308  and  _310
REMARK  121  A    between atoms: _310  and  _311
REMARK  122  A    between atoms: _313  and  _315
REMARK  123  A    between atoms: _315  and  _316
REMARK  124  A    between atoms: _315  and  _318
REMARK  125  A    between atoms: _318  and  _319
REMARK  126  A    between atoms: _324  and  _326
REMARK  127  A    between atoms: _326  and  _327
REMARK  128  A    between atoms: _326  and  _329
REMARK  129  A    between atoms: _329  and  _330
REMARK  130  A    between atoms: _333  and  _335
REMARK  131  A    between atoms: _335  and  _336
REMARK  132  A    between atoms: _335  and  _338
REMARK  133  A    between atoms: _338  and  _339
REMARK  134  A    between atoms: _344  and  _345
REMARK  135  A    between atoms: _347  and  _349
REMARK  136  A    between atoms: _349  and  _350
REMARK  137  A    between atoms: _349  and  _352
REMARK  138  A    between atoms: _352  and  _353
REMARK  139  A    between atoms: _356  and  _358
REMARK  140  A    between atoms: _358  and  _359
REMARK  141  A    between atoms: _358  and  _361
REMARK  142  A    between atoms: _361  and  _362
REMARK  143  A    between atoms: _367  and  _368
REMARK  144  A    between atoms: _371  and  _372
REMARK  145  A    between atoms: _377  and  _379
REMARK  146  A    between atoms: _379  and  _380
REMARK  147  A    between atoms: _379  and  _382
REMARK  148  A    between atoms: _382  and  _383
REMARK  149  A    between atoms: _388  and  _389
REMARK  150  A    between atoms: _391  and  _393
REMARK  151  A    between atoms: _393  and  _394
REMARK  152  A    between atoms: _393  and  _396
REMARK  153  A    between atoms: _396  and  _397
REMARK  154  A    between atoms: _397  and  _398
REMARK  155  A    between atoms: _400  and  _402
REMARK  156  A    between atoms: _402  and  _403
REMARK  157  A    between atoms: _402  and  _405
REMARK  158  A    between atoms: _405  and  _406
REMARK  159  A    between atoms: _411  and  _412
REMARK  160  A    between atoms: _414  and  _416
REMARK  161  A    between atoms: _416  and  _417
REMARK  162  A    between atoms: _416  and  _419
REMARK  163  A    between atoms: _419  and  _420
REMARK  164  A    between atoms: _423  and  _425
REMARK  165  A    between atoms: _425  and  _426
REMARK  166  A    between atoms: _429  and  _431
REMARK  167  A    between atoms: _431  and  _432
REMARK  168  A    between atoms: _434  and  _436
REMARK  169  A    between atoms: _436  and  _437
REMARK  170  A    between atoms: _436  and  _439
REMARK  171  A    between atoms: _439  and  _440
REMARK  172  A    between atoms: _445  and  _446
REMARK  173  A    between atoms: _448  and  _450
REMARK  174  A    between atoms: _450  and  _451
REMARK  175  A    between atoms: _450  and  _453
REMARK  176  A    between atoms: _453  and  _454
REMARK  177  A    between atoms: _459  and  _461
REMARK  178  A    between atoms: _461  and  _462
REMARK  179  A    between atoms: _461  and  _464
REMARK  180  A    between atoms: _466  and  _468
REMARK  181  A    between atoms: _468  and  _469
REMARK  182  A    between atoms: _468  and  _471
REMARK  183  A    between atoms: _471  and  _472
REMARK  184  A    between atoms: _472  and  _473
REMARK  185  A    between atoms: _473  and  _474
REMARK  186  A    between atoms: _483  and  _485
REMARK  187  A    between atoms: _485  and  _486
REMARK  188  A    between atoms: _489  and  _491
REMARK  189  A    between atoms: _491  and  _492
REMARK  190  A    between atoms: _495  and  _497
REMARK  191  A    between atoms: _497  and  _498
REMARK  192  A    between atoms: _497  and  _500
REMARK  193  A    between atoms: _500  and  _501
REMARK  194  A    between atoms: _511  and  _513
REMARK  195  A    between atoms: _513  and  _514
REMARK  196  A    between atoms: _513  and  _516
REMARK  197  A    between atoms: _516  and  _517
REMARK  198  A    between atoms: _520  and  _522
REMARK  199  A    between atoms: _522  and  _523
REMARK  200  A    between atoms: _522  and  _525
REMARK  201  A    between atoms: _525  and  _526
REMARK  202  A    between atoms: _526  and  _527
REMARK  203  A    between atoms: _530  and  _532
REMARK  204  A    between atoms: _532  and  _533
REMARK  205  A    between atoms: _532  and  _535
REMARK  206  A    between atoms: _535  and  _536
REMARK  207  A    between atoms: _539  and  _541
REMARK  208  A    between atoms: _541  and  _542
REMARK  209  A    between atoms: _541  and  _544
REMARK  210  A    between atoms: _544  and  _545
REMARK  211  A    between atoms: _545  and  _546
REMARK  212  A    between atoms: _546  and  _547
REMARK  213  A    between atoms: _547  and  _548
REMARK  214  A    between atoms: _552  and  _554
REMARK  215  A    between atoms: _554  and  _555
REMARK  216  A    between atoms: _554  and  _557
REMARK  217  A    between atoms: _557  and  _558
REMARK  218  A    between atoms: _558  and  _559
REMARK  219  A    between atoms: _562  and  _564
REMARK  220  A    between atoms: _564  and  _565
REMARK  221  A    between atoms: _564  and  _567
REMARK  222  A    between atoms: _567  and  _568
REMARK  223  A    between atoms: _574  and  _576
REMARK  224  A    between atoms: _576  and  _577
REMARK  225  A    between atoms: _576  and  _579
REMARK  226  A    between atoms: _579  and  _580
REMARK  227  A    between atoms: _586  and  _588
REMARK  228  A    between atoms: _588  and  _589
REMARK  229  A    between atoms: _588  and  _591
REMARK  230  A    between atoms: _591  and  _592
REMARK  231  A    between atoms: _592  and  _593
REMARK  232  A    between atoms: _596  and  _598
REMARK  233  A    between atoms: _598  and  _599
REMARK  234  A    between atoms: _598  and  _601
REMARK  235  A    between atoms: _604  and  _606
REMARK  236  A    between atoms: _606  and  _607
REMARK  237  A    between atoms: _610  and  _612
REMARK  238  A    between atoms: _612  and  _613
REMARK  239  A    between atoms: _612  and  _615
REMARK  240  A    between atoms: _615  and  _616
REMARK  241  A    between atoms: _619  and  _621
REMARK  242  A    between atoms: _621  and  _622
REMARK  243  A    between atoms: _621  and  _624
REMARK  244  A    between atoms: _627  and  _629
REMARK  245  A    between atoms: _629  and  _630
REMARK  246  A    between atoms: _629  and  _632
REMARK  247  A    between atoms: _632  and  _633
REMARK                            x       y       z     vdW  Elec       q    Type
REMARK                         _______ _______ _______ _____ _____    ______ ____
ROOT
ATOM      1  C   PHE A   3      15.323  26.167  18.410  0.00  0.00    +0.241 C 
ATOM      2  O   PHE A   3      14.510  27.079  18.618  0.00  0.00    -0.273 OA
ATOM      3  N   PHE A   4      16.476  26.392  17.784  0.00  0.00    -0.297 N 
ATOM      4  H   PHE A   4      17.136  25.601  17.639  0.00  0.00    +0.150 HD
ENDROOT
BRANCH   3   5
ATOM      5  CA  PHE A   4      16.833  27.697  17.304  0.00  0.00    +0.153 C 
BRANCH   5   6
ATOM      6  C   PHE A   4      15.801  28.264  16.279  0.00  0.00    +0.241 C 
ATOM      7  O   PHE A   4      15.407  29.442  16.332  0.00  0.00    -0.273 OA
ATOM      8  N   GLU A   5      15.446  27.403  15.341  0.00  0.00    -0.297 N 
ATOM      9  H   GLU A   5      15.848  26.444  15.356  0.00  0.00    +0.150 HD
BRANCH   8  10
ATOM     10  CA  GLU A   5      14.497  27.765  14.276  0.00  0.00    +0.149 C 
BRANCH  10  11
ATOM     11  C   GLU A   5      13.133  28.048  14.903  0.00  0.00    +0.241 C 
ATOM     12  N   VAL A   6      12.713  27.259  15.885  0.00  0.00    -0.297 N 
ATOM     13  H   VAL A   6      13.291  26.454  16.200  0.00  0.00    +0.150 HD
ATOM     14  O   GLU A   5      12.480  29.012  14.494  0.00  0.00    -0.273 OA
BRANCH  12  15
ATOM     15  CA  VAL A   6      11.400  27.547  16.527  0.00  0.00    +0.149 C 
BRANCH  15  16
ATOM     16  C   VAL A   6      11.424  28.880  17.262  0.00  0.00    +0.241 C 
ATOM     17  N   ALA A   7      12.469  29.098  18.063  0.00  0.00    -0.298 N 
ATOM     18  H   ALA A   7      13.228  28.390  18.121  0.00  0.00    +0.150 HD
ATOM     19  O   VAL A   6      10.548  29.745  17.100  0.00  0.00    -0.273 OA
BRANCH  17  20
ATOM     20  CA  ALA A   7      12.558  30.301  18.847  0.00  0.00    +0.137 C 
ATOM     21  CB  ALA A   7      13.682  30.183  19.872  0.00  0.00    +0.030 C 
BRANCH  20  22
ATOM     22  C   ALA A   7      12.769  31.543  18.051  0.00  0.00    +0.227 C 
ATOM     23  O   ALA A   7      12.226  32.560  18.342  0.00  0.00    -0.286 OA
ENDBRANCH  20  22
ENDBRANCH  17  20
ENDBRANCH  15  16
BRANCH  15  24
ATOM     24  CB  VAL A   6      10.950  26.404  17.430  0.00  0.00    +0.027 C 
ATOM     25  CG2 VAL A   6       9.715  26.769  18.279  0.00  0.00    +0.002 C 
ATOM     26  CG1 VAL A   6      10.675  25.153  16.581  0.00  0.00    +0.002 C 
ENDBRANCH  15  24
ENDBRANCH  12  15
ENDBRANCH  10  11
BRANCH  10  27
ATOM     27  CB  GLU A   5      14.430  26.688  13.221  0.00  0.00    +0.041 C 
BRANCH  27  28
ATOM     28  CG  GLU A   5      15.753  26.604  12.424  0.00  0.00    +0.116 C 
BRANCH  28  29
ATOM     29  CD  GLU A   5      15.788  25.533  11.325  0.00  0.00    +0.365 C 
ATOM     30  OE2 GLU A   5      14.715  24.990  10.970  0.00  0.00    -0.246 OA
ATOM     31  OE1 GLU A   5      16.901  25.235  10.798  0.00  0.00    -0.246 OA
ENDBRANCH  28  29
ENDBRANCH  27  28
ENDBRANCH  10  27
ENDBRANCH   8  10
ENDBRANCH   5   6
BRANCH   5  32
ATOM     32  CB  PHE A   4      18.226  27.634  16.626  0.00  0.00    +0.055 C 
BRANCH  32  33
ATOM     33  CG  PHE A   4      18.766  28.992  16.283  0.00  0.00    -0.020 A 
ATOM     34  CD2 PHE A   4      19.619  29.629  17.170  0.00  0.00    -0.004 A 
ATOM     35  CE2 PHE A   4      20.078  30.907  16.939  0.00  0.00    -0.000 A 
ATOM     36  CZ  PHE A   4      19.735  31.525  15.761  0.00  0.00    -0.000 A 
ATOM     37  CE1 PHE A   4      18.915  30.908  14.852  0.00  0.00    -0.000 A 
ATOM     38  CD1 PHE A   4      18.433  29.636  15.111  0.00  0.00    -0.004 A 
ENDBRANCH  32  33
ENDBRANCH   5  32
ENDBRANCH   3   5
BRANCH   1  39
ATOM     39  CA  PHE A   3      15.034  24.730  18.887  0.00  0.00    +0.153 C 
BRANCH  39  41
ATOM     40  C   GLU A   2      14.830  23.749  16.702  0.00  0.00    +0.241 C 
ATOM     41  N   PHE A   3      15.411  23.735  17.897  0.00  0.00    -0.297 N 
ATOM     42  H   PHE A   3      16.130  23.018  18.122  0.00  0.00    +0.150 HD
ATOM     43  O   GLU A   2      13.951  24.572  16.413  0.00  0.00    -0.273 OA
BRANCH  40  44
ATOM     44  CA  GLU A   2      15.300  22.714  15.662  0.00  0.00    +0.149 C 
BRANCH  44  46
ATOM     45  C   LYS A   1      17.420  23.773  15.130  0.00  0.00    +0.238 C 
ATOM     46  N   GLU A   2      16.775  22.715  15.581  0.00  0.00    -0.297 N 
ATOM     47  H   GLU A   2      17.309  21.875  15.882  0.00  0.00    +0.150 HD
ATOM     48  O   LYS A   1      16.871  24.811  14.813  0.00  0.00    -0.274 OA
BRANCH  45  49
ATOM     49  CA  LYS A   1      18.940  23.676  15.115  0.00  0.00    +0.145 C 
BRANCH  49  50
ATOM     50  N   LYS A   1      19.454  22.992  16.291  0.00  0.00    -0.238 NA
ATOM     51  H   LYS A   1      20.000  22.115  16.173  0.00  0.00    +0.142 HD
ENDBRANCH  49  50
BRANCH  49  52
ATOM     52  CB  LYS A   1      19.441  22.967  13.877  0.00  0.00    +0.026 C 
BRANCH  52  53
ATOM     53  CG  LYS A   1      20.894  23.292  13.564  0.00  0.00    -0.000 C 
BRANCH  53  54
ATOM     54  CD  LYS A   1      21.361  22.320  12.468  0.00  0.00    -0.024 C 
BRANCH  54  55
ATOM     55  CE  LYS A   1      22.838  22.364  12.198  0.00  0.00    -0.086 C 
BRANCH  55  56
ATOM     56  NZ  LYS A   1      23.073  21.455  11.038  0.00  0.00    +0.380 N 
ATOM     57  HZ1 LYS A   1      22.765  20.493  11.285  0.00  0.00    -0.089 HD
ATOM     58  HZ2 LYS A   1      24.087  21.447  10.806  0.00  0.00    -0.089 HD
ATOM     59  HZ3 LYS A   1      22.531  21.794  10.218  0.00  0.00    -0.089 HD
ENDBRANCH  55  56
ENDBRANCH  54  55
ENDBRANCH  53  54
ENDBRANCH  52  53
ENDBRANCH  49  52
ENDBRANCH  45  49
ENDBRANCH  44  46
BRANCH  44  60
ATOM     60  CB  GLU A   2      14.696  21.379  16.051  0.00  0.00    +0.041 C 
BRANCH  60  61
ATOM     61  CG  GLU A   2      15.107  20.105  15.326  0.00  0.00    +0.116 C 
BRANCH  61  62
ATOM     62  CD  GLU A   2      14.622  19.971  13.907  0.00  0.00    +0.365 C 
ATOM     63  OE2 GLU A   2      14.648  18.790  13.443  0.00  0.00    -0.246 OA
ATOM     64  OE1 GLU A   2      14.184  20.985  13.287  0.00  0.00    -0.246 OA
ENDBRANCH  61  62
ENDBRANCH  60  61
ENDBRANCH  44  60
ENDBRANCH  40  44
ENDBRANCH  39  41
BRANCH  39  65
ATOM     65  CB  PHE A   3      15.617  24.465  20.274  0.00  0.00    +0.055 C 
BRANCH  65  66
ATOM     66  CG  PHE A   3      14.866  23.416  21.061  0.00  0.00    -0.020 A 
ATOM     67  CD2 PHE A   3      13.603  23.684  21.624  0.00  0.00    -0.004 A 
ATOM     68  CE2 PHE A   3      12.923  22.724  22.320  0.00  0.00    -0.000 A 
ATOM     69  CZ  PHE A   3      13.473  21.494  22.500  0.00  0.00    -0.000 A 
ATOM     70  CE1 PHE A   3      14.698  21.227  21.961  0.00  0.00    -0.000 A 
ATOM     71  CD1 PHE A   3      15.394  22.193  21.253  0.00  0.00    -0.004 A 
ENDBRANCH  65  66
ENDBRANCH  39  65
ENDBRANCH   1  39
TORSDOF 30
REMARK  Name = ../refined-set-2016/4x5y/4x5y_pocket.pdb
REMARK  247 active torsions:
REMARK  status: ('A' for Active; 'I' for Inactive)
REMARK    1  A    between atoms: _1  and  _3
REMARK    2  A    between atoms: _3  and  _4
REMARK    3  A    between atoms: _3  and  _6
REMARK    4  A    between atoms: _6  and  _7
REMARK    5  A    between atoms: _10  and  _12
REMARK    6  A    between atoms: _12  and  _13
REMARK    7  A    between atoms: _12  and  _15
REMARK    8  A    between atoms: _15  and  _16
REMARK    9  A    between atoms: _18  and  _20
REMARK   10  A    between atoms: _20  and  _21
REMARK   11  A    between atoms: _20  and  _23
REMARK   12  A    between atoms: _23  and  _24
REMARK   13  A    between atoms: _26  and  _28
REMARK   14  A    between atoms: _28  and  _29
REMARK   15  A    between atoms: _31  and  _33
REMARK   16  A    between atoms: _33  and  _34
REMARK   17  A    between atoms: _37  and  _39
REMARK   18  A    between atoms: _39  and  _40
REMARK   19  A    between atoms: _39  and  _42
REMARK   20  A    between atoms: _42  and  _43
REMARK   21  A    between atoms: _49  and  _51
REMARK   22  A    between atoms: _51  and  _52
REMARK   23  A    between atoms: _51  and  _54
REMARK   24  A    between atoms: _54  and  _55
REMARK   25  A    between atoms: _58  and  _60
REMARK   26  A    between atoms: _60  and  _61
REMARK   27  A    between atoms: _64  and  _66
REMARK   28  A    between atoms: _66  and  _67
REMARK   29  A    between atoms: _66  and  _69
REMARK   30  A    between atoms: _69  and  _70
REMARK   31  A    between atoms: _73  and  _75
REMARK   32  A    between atoms: _75  and  _76
REMARK   33  A    between atoms: _75  and  _78
REMARK   34  A    between atoms: _78  and  _79
REMARK   35  A    between atoms: _81  and  _83
REMARK   36  A    between atoms: _83  and  _84
REMARK   37  A    between atoms: _83  and  _86
REMARK   38  A    between atoms: _86  and  _87
REMARK   39  A    between atoms: _87  and  _88
REMARK   40  A    between atoms: _91  and  _93
REMARK   41  A    between atoms: _93  and  _94
REMARK   42  A    between atoms: _93  and  _96
REMARK   43  A    between atoms: _96  and  _97
REMARK   44  A    between atoms: _100  and  _102
REMARK   45  A    between atoms: _102  and  _103
REMARK   46  A    between atoms: _102  and  _105
REMARK   47  A    between atoms: _105  and  _106
REMARK   48  A    between atoms: _111  and  _113
REMARK   49  A    between atoms: _113  and  _114
REMARK   50  A    between atoms: _117  and  _119
REMARK   51  A    between atoms: _119  and  _120
REMARK   52  A    between atoms: _119  and  _122
REMARK   53  A    between atoms: _122  and  _123
REMARK   54  A    between atoms: _133  and  _135
REMARK   55  A    between atoms: _135  and  _136
REMARK   56  A    between atoms: _135  and  _138
REMARK   57  A    between atoms: _138  and  _139
REMARK   58  A    between atoms: _142  and  _144
REMARK   59  A    between atoms: _144  and  _145
REMARK   60  A    between atoms: _144  and  _147
REMARK   61  A    between atoms: _147  and  _148
REMARK   62  A    between atoms: _158  and  _160
REMARK   63  A    between atoms: _160  and  _161
REMARK   64  A    between atoms: _160  and  _163
REMARK   65  A    between atoms: _163  and  _164
REMARK   66  A    between atoms: _169  and  _171
REMARK   67  A    between atoms: _171  and  _172
REMARK   68  A    between atoms: _174  and  _176
REMARK   69  A    between atoms: _176  and  _177
REMARK   70  A    between atoms: _176  and  _179
REMARK   71  A    between atoms: _179  and  _180
REMARK   72  A    between atoms: _190  and  _192
REMARK   73  A    between atoms: _192  and  _193
REMARK   74  A    between atoms: _192  and  _195
REMARK   75  A    between atoms: _195  and  _196
REMARK   76  A    between atoms: _199  and  _201
REMARK   77  A    between atoms: _201  and  _202
REMARK   78  A    between atoms: _201  and  _204
REMARK   79  A    between atoms: _204  and  _205
REMARK   80  A    between atoms: _205  and  _206
REMARK   81  A    between atoms: _208  and  _210
REMARK   82  A    between atoms: _210  and  _211
REMARK   83  A    between atoms: _210  and  _213
REMARK   84  A    between atoms: _215  and  _217
REMARK   85  A    between atoms: _217  and  _218
REMARK   86  A    between atoms: _221  and  _223
REMARK   87  A    between atoms: _223  and  _224
REMARK   88  A    between atoms: _223  and  _226
REMARK   89  A    between atoms: _226  and  _227
REMARK   90  A    between atoms: _233  and  _235
REMARK   91  A    between atoms: _235  and  _236
REMARK   92  A    between atoms: _235  and  _238
REMARK   93  A    between atoms: _238  and  _239
REMARK   94  A    between atoms: _239  and  _240
REMARK   95  A    between atoms: _242  and  _244
REMARK   96  A    between atoms: _244  and  _245
REMARK   97  A    between atoms: _244  and  _247
REMARK   98  A    between atoms: _250  and  _252
REMARK   99  A    between atoms: _252  and  _253
REMARK  100  A    between atoms: _252  and  _255
REMARK  101  A    between atoms: _257  and  _259
REMARK  102  A    between atoms: _259  and  _260
REMARK  103  A    between atoms: _263  and  _265
REMARK  104  A    between atoms: _265  and  _266
REMARK  105  A    between atoms: _265  and  _268
REMARK  106  A    between atoms: _268  and  _269
REMARK  107  A    between atoms: _274  and  _275
REMARK  108  A    between atoms: _278  and  _279
REMARK  109  A    between atoms: _284  and  _286
REMARK  110  A    between atoms: _286  and  _287
REMARK  111  A    between atoms: _286  and  _289
REMARK  112  A    between atoms: _289  and  _290
REMARK  113  A    between atoms: _290  and  _291
REMARK  114  A    between atoms: _293  and  _295
REMARK  115  A    between atoms: _295  and  _296
REMARK  116  A    between atoms: _299  and  _301
REMARK  117  A    between atoms: _301  and  _302
REMARK  118  A    between atoms: _301  and  _304
REMARK  119  A    between atoms: _304  and  _305
REMARK  120  A    between atoms: _308  and  _310
REMARK  121  A    between atoms: _310  and  _311
REMARK  122  A    between atoms: _313  and  _315
REMARK  123  A    between atoms: _315  and  _316
REMARK  124  A    between atoms: _315  and  _318
REMARK  125  A    between atoms: _318  and  _319
REMARK  126  A    between atoms: _324  and  _326
REMARK  127  A    between atoms: _326  and  _327
REMARK  128  A    between atoms: _326  and  _329
REMARK  129  A    between atoms: _329  and  _330
REMARK  130  A    between atoms: _333  and  _335
REMARK  131  A    between atoms: _335  and  _336
REMARK  132  A    between atoms: _335  and  _338
REMARK  133  A    between atoms: _338  and  _339
REMARK  134  A    between atoms: _344  and  _345
REMARK  135  A    between atoms: _347  and  _349
REMARK  136  A    between atoms: _349  and  _350
REMARK  137  A    between atoms: _349  and  _352
REMARK  138  A    between atoms: _352  and  _353
REMARK  139  A    between atoms: _356  and  _358
REMARK  140  A    between atoms: _358  and  _359
REMARK  141  A    between atoms: _358  and  _361
REMARK  142  A    between atoms: _361  and  _362
REMARK  143  A    between atoms: _367  and  _368
REMARK  144  A    between atoms: _371  and  _372
REMARK  145  A    between atoms: _377  and  _379
REMARK  146  A    between atoms: _379  and  _380
REMARK  147  A    between atoms: _379  and  _382
REMARK  148  A    between atoms: _382  and  _383
REMARK  149  A    between atoms: _388  and  _389
REMARK  150  A    between atoms: _391  and  _393
REMARK  151  A    between atoms: _393  and  _394
REMARK  152  A    between atoms: _393  and  _396
REMARK  153  A    between atoms: _396  and  _397
REMARK  154  A    between atoms: _397  and  _398
REMARK  155  A    between atoms: _400  and  _402
REMARK  156  A    between atoms: _402  and  _403
REMARK  157  A    between atoms: _402  and  _405
REMARK  158  A    between atoms: _405  and  _406
REMARK  159  A    between atoms: _411  and  _412
REMARK  160  A    between atoms: _414  and  _416
REMARK  161  A    between atoms: _416  and  _417
REMARK  162  A    between atoms: _416  and  _419
REMARK  163  A    between atoms: _419  and  _420
REMARK  164  A    between atoms: _423  and  _425
REMARK  165  A    between atoms: _425  and  _426
REMARK  166  A    between atoms: _429  and  _431
REMARK  167  A    between atoms: _431  and  _432
REMARK  168  A    between atoms: _434  and  _436
REMARK  169  A    between atoms: _436  and  _437
REMARK  170  A    between atoms: _436  and  _439
REMARK  171  A    between atoms: _439  and  _440
REMARK  172  A    between atoms: _445  and  _446
REMARK  173  A    between atoms: _448  and  _450
REMARK  174  A    between atoms: _450  and  _451
REMARK  175  A    between atoms: _450  and  _453
REMARK  176  A    between atoms: _453  and  _454
REMARK  177  A    between atoms: _459  and  _461
REMARK  178  A    between atoms: _461  and  _462
REMARK  179  A    between atoms: _461  and  _464
REMARK  180  A    between atoms: _466  and  _468
REMARK  181  A    between atoms: _468  and  _469
REMARK  182  A    between atoms: _468  and  _471
REMARK  183  A    between atoms: _471  and  _472
REMARK  184  A    between atoms: _472  and  _473
REMARK  185  A    between atoms: _473  and  _474
REMARK  186  A    between atoms: _483  and  _485
REMARK  187  A    between atoms: _485  and  _486
REMARK  188  A    between atoms: _489  and  _491
REMARK  189  A    between atoms: _491  and  _492
REMARK  190  A    between atoms: _495  and  _497
REMARK  191  A    between atoms: _497  and  _498
REMARK  192  A    between atoms: _497  and  _500
REMARK  193  A    between atoms: _500  and  _501
REMARK  194  A    between atoms: _511  and  _513
REMARK  195  A    between atoms: _513  and  _514
REMARK  196  A    between atoms: _513  and  _516
REMARK  197  A    between atoms: _516  and  _517
REMARK  198  A    between atoms: _520  and  _522
REMARK  199  A    between atoms: _522  and  _523
REMARK  200  A    between atoms: _522  and  _525
REMARK  201  A    between atoms: _525  and  _526
REMARK  202  A    between atoms: _526  and  _527
REMARK  203  A    between atoms: _530  and  _532
REMARK  204  A    between atoms: _532  and  _533
REMARK  205  A    between atoms: _532  and  _535
REMARK  206  A    between atoms: _535  and  _536
REMARK  207  A    between atoms: _539  and  _541
REMARK  208  A    between atoms: _541  and  _542
REMARK  209  A    between atoms: _541  and  _544
REMARK  210  A    between atoms: _544  and  _545
REMARK  211  A    between atoms: _545  and  _546
REMARK  212  A    between atoms: _546  and  _547
REMARK  213  A    between atoms: _547  and  _548
REMARK  214  A    between atoms: _552  and  _554
REMARK  215  A    between atoms: _554  and  _555
REMARK  216  A    between atoms: _554  and  _557
REMARK  217  A    between atoms: _557  and  _558
REMARK  218  A    between atoms: _558  and  _559
REMARK  219  A    between atoms: _562  and  _564
REMARK  220  A    between atoms: _564  and  _565
REMARK  221  A    between atoms: _564  and  _567
REMARK  222  A    between atoms: _567  and  _568
REMARK  223  A    between atoms: _574  and  _576
REMARK  224  A    between atoms: _576  and  _577
REMARK  225  A    between atoms: _576  and  _579
REMARK  226  A    between atoms: _579  and  _580
REMARK  227  A    between atoms: _586  and  _588
REMARK  228  A    between atoms: _588  and  _589
REMARK  229  A    between atoms: _588  and  _591
REMARK  230  A    between atoms: _591  and  _592
REMARK  231  A    between atoms: _592  and  _593
REMARK  232  A    between atoms: _596  and  _598
REMARK  233  A    between atoms: _598  and  _599
REMARK  234  A    between atoms: _598  and  _601
REMARK  235  A    between atoms: _604  and  _606
REMARK  236  A    between atoms: _606  and  _607
REMARK  237  A    between atoms: _610  and  _612
REMARK  238  A    between atoms: _612  and  _613
REMARK  239  A    between atoms: _612  and  _615
REMARK  240  A    between atoms: _615  and  _616
REMARK  241  A    between atoms: _619  and  _621
REMARK  242  A    between atoms: _621  and  _622
REMARK  243  A    between atoms: _621  and  _624
REMARK  244  A    between atoms: _627  and  _629
REMARK  245  A    between atoms: _629  and  _630
REMARK  246  A    between atoms: _629  and  _632
REMARK  247  A    between atoms: _632  and  _633
REMARK                            x       y       z     vdW  Elec       q    Type
REMARK                         _______ _______ _______ _____ _____    ______ ____
ROOT
ATOM      1  CA  VAL A   2       8.800  30.184  13.614  0.00  0.00    +0.148 C 
ENDROOT
BRANCH   1   3
ATOM      2  C   ASP A   1      10.523  31.831  13.276  0.00  0.00    +0.239 C 
ATOM      3  N   VAL A   2      10.179  30.638  13.721  0.00  0.00    -0.297 N 
ATOM      4  H   VAL A   2      10.896  30.019  14.150  0.00  0.00    +0.150 HD
ATOM      5  O   ASP A   1       9.721  32.715  12.954  0.00  0.00    -0.274 OA
BRANCH   2   6
ATOM      6  CA  ASP A   1      12.033  32.133  13.203  0.00  0.00    +0.156 C 
BRANCH   6   7
ATOM      7  N   ASP A   1      12.716  31.958  14.466  0.00  0.00    -0.238 NA
ATOM      8  H   ASP A   1      12.522  31.105  15.029  0.00  0.00    +0.142 HD
ENDBRANCH   6   7
BRANCH   6   9
ATOM      9  CB  ASP A   1      12.729  31.350  12.124  0.00  0.00    +0.140 C 
BRANCH   9  10
ATOM     10  CG  ASP A   1      12.135  31.634  10.749  0.00  0.00    +0.367 C 
ATOM     11  OD2 ASP A   1      12.137  32.803  10.363  0.00  0.00    -0.246 OA
ATOM     12  OD1 ASP A   1      11.644  30.698  10.131  0.00  0.00    -0.246 OA
ENDBRANCH   9  10
ENDBRANCH   6   9
ENDBRANCH   2   6
ENDBRANCH   1   3
BRANCH   1  13
ATOM     13  C   VAL A   2       7.936  30.940  14.583  0.00  0.00    +0.241 C 
ATOM     14  N   ILE A   3       8.326  30.992  15.855  0.00  0.00    -0.298 N 
ATOM     15  H   ILE A   3       9.202  30.518  16.155  0.00  0.00    +0.150 HD
ATOM     16  O   VAL A   2       6.879  31.492  14.205  0.00  0.00    -0.273 OA
BRANCH  14  17
ATOM     17  CA  ILE A   3       7.507  31.725  16.830  0.00  0.00    +0.137 C 
BRANCH  17  18
ATOM     18  CB  ILE A   3       7.999  31.509  18.308  0.00  0.00    +0.026 C 
ATOM     19  CG2 ILE A   3       7.460  32.579  19.247  0.00  0.00    +0.002 C 
BRANCH  18  20
ATOM     20  CG1 ILE A   3       7.580  30.078  18.711  0.00  0.00    +0.002 C 
ATOM     21  CD1 ILE A   3       8.132  29.660  20.041  0.00  0.00    +0.000 C 
ENDBRANCH  18  20
ENDBRANCH  17  18
BRANCH  17  22
ATOM     22  C   ILE A   3       7.415  33.202  16.471  0.00  0.00    +0.227 C 
ATOM     23  O   ILE A   3       6.362  33.776  16.476  0.00  0.00    -0.286 OA
ENDBRANCH  17  22
ENDBRANCH  14  17
ENDBRANCH   1  13
BRANCH   1  24
ATOM     24  CB  VAL A   2       8.676  28.696  13.820  0.00  0.00    +0.027 C 
ATOM     25  CG2 VAL A   2       7.192  28.268  13.748  0.00  0.00    +0.002 C 
ATOM     26  CG1 VAL A   2       9.491  27.951  12.783  0.00  0.00    +0.002 C 
ENDBRANCH   1  24
TORSDOF 11
REMARK  Name = ../refined-set-2016/4x5y/4x5y_pocket.pdb
REMARK  247 active torsions:
REMARK  status: ('A' for Active; 'I' for Inactive)
REMARK    1  A    between atoms: _1  and  _3
REMARK    2  A    between atoms: _3  and  _4
REMARK    3  A    between atoms: _3  and  _6
REMARK    4  A    between atoms: _6  and  _7
REMARK    5  A    between atoms: _10  and  _12
REMARK    6  A    between atoms: _12  and  _13
REMARK    7  A    between atoms: _12  and  _15
REMARK    8  A    between atoms: _15  and  _16
REMARK    9  A    between atoms: _18  and  _20
REMARK   10  A    between atoms: _20  and  _21
REMARK   11  A    between atoms: _20  and  _23
REMARK   12  A    between atoms: _23  and  _24
REMARK   13  A    between atoms: _26  and  _28
REMARK   14  A    between atoms: _28  and  _29
REMARK   15  A    between atoms: _31  and  _33
REMARK   16  A    between atoms: _33  and  _34
REMARK   17  A    between atoms: _37  and  _39
REMARK   18  A    between atoms: _39  and  _40
REMARK   19  A    between atoms: _39  and  _42
REMARK   20  A    between atoms: _42  and  _43
REMARK   21  A    between atoms: _49  and  _51
REMARK   22  A    between atoms: _51  and  _52
REMARK   23  A    between atoms: _51  and  _54
REMARK   24  A    between atoms: _54  and  _55
REMARK   25  A    between atoms: _58  and  _60
REMARK   26  A    between atoms: _60  and  _61
REMARK   27  A    between atoms: _64  and  _66
REMARK   28  A    between atoms: _66  and  _67
REMARK   29  A    between atoms: _66  and  _69
REMARK   30  A    between atoms: _69  and  _70
REMARK   31  A    between atoms: _73  and  _75
REMARK   32  A    between atoms: _75  and  _76
REMARK   33  A    between atoms: _75  and  _78
REMARK   34  A    between atoms: _78  and  _79
REMARK   35  A    between atoms: _81  and  _83
REMARK   36  A    between atoms: _83  and  _84
REMARK   37  A    between atoms: _83  and  _86
REMARK   38  A    between atoms: _86  and  _87
REMARK   39  A    between atoms: _87  and  _88
REMARK   40  A    between atoms: _91  and  _93
REMARK   41  A    between atoms: _93  and  _94
REMARK   42  A    between atoms: _93  and  _96
REMARK   43  A    between atoms: _96  and  _97
REMARK   44  A    between atoms: _100  and  _102
REMARK   45  A    between atoms: _102  and  _103
REMARK   46  A    between atoms: _102  and  _105
REMARK   47  A    between atoms: _105  and  _106
REMARK   48  A    between atoms: _111  and  _113
REMARK   49  A    between atoms: _113  and  _114
REMARK   50  A    between atoms: _117  and  _119
REMARK   51  A    between atoms: _119  and  _120
REMARK   52  A    between atoms: _119  and  _122
REMARK   53  A    between atoms: _122  and  _123
REMARK   54  A    between atoms: _133  and  _135
REMARK   55  A    between atoms: _135  and  _136
REMARK   56  A    between atoms: _135  and  _138
REMARK   57  A    between atoms: _138  and  _139
REMARK   58  A    between atoms: _142  and  _144
REMARK   59  A    between atoms: _144  and  _145
REMARK   60  A    between atoms: _144  and  _147
REMARK   61  A    between atoms: _147  and  _148
REMARK   62  A    between atoms: _158  and  _160
REMARK   63  A    between atoms: _160  and  _161
REMARK   64  A    between atoms: _160  and  _163
REMARK   65  A    between atoms: _163  and  _164
REMARK   66  A    between atoms: _169  and  _171
REMARK   67  A    between atoms: _171  and  _172
REMARK   68  A    between atoms: _174  and  _176
REMARK   69  A    between atoms: _176  and  _177
REMARK   70  A    between atoms: _176  and  _179
REMARK   71  A    between atoms: _179  and  _180
REMARK   72  A    between atoms: _190  and  _192
REMARK   73  A    between atoms: _192  and  _193
REMARK   74  A    between atoms: _192  and  _195
REMARK   75  A    between atoms: _195  and  _196
REMARK   76  A    between atoms: _199  and  _201
REMARK   77  A    between atoms: _201  and  _202
REMARK   78  A    between atoms: _201  and  _204
REMARK   79  A    between atoms: _204  and  _205
REMARK   80  A    between atoms: _205  and  _206
REMARK   81  A    between atoms: _208  and  _210
REMARK   82  A    between atoms: _210  and  _211
REMARK   83  A    between atoms: _210  and  _213
REMARK   84  A    between atoms: _215  and  _217
REMARK   85  A    between atoms: _217  and  _218
REMARK   86  A    between atoms: _221  and  _223
REMARK   87  A    between atoms: _223  and  _224
REMARK   88  A    between atoms: _223  and  _226
REMARK   89  A    between atoms: _226  and  _227
REMARK   90  A    between atoms: _233  and  _235
REMARK   91  A    between atoms: _235  and  _236
REMARK   92  A    between atoms: _235  and  _238
REMARK   93  A    between atoms: _238  and  _239
REMARK   94  A    between atoms: _239  and  _240
REMARK   95  A    between atoms: _242  and  _244
REMARK   96  A    between atoms: _244  and  _245
REMARK   97  A    between atoms: _244  and  _247
REMARK   98  A    between atoms: _250  and  _252
REMARK   99  A    between atoms: _252  and  _253
REMARK  100  A    between atoms: _252  and  _255
REMARK  101  A    between atoms: _257  and  _259
REMARK  102  A    between atoms: _259  and  _260
REMARK  103  A    between atoms: _263  and  _265
REMARK  104  A    between atoms: _265  and  _266
REMARK  105  A    between atoms: _265  and  _268
REMARK  106  A    between atoms: _268  and  _269
REMARK  107  A    between atoms: _274  and  _275
REMARK  108  A    between atoms: _278  and  _279
REMARK  109  A    between atoms: _284  and  _286
REMARK  110  A    between atoms: _286  and  _287
REMARK  111  A    between atoms: _286  and  _289
REMARK  112  A    between atoms: _289  and  _290
REMARK  113  A    between atoms: _290  and  _291
REMARK  114  A    between atoms: _293  and  _295
REMARK  115  A    between atoms: _295  and  _296
REMARK  116  A    between atoms: _299  and  _301
REMARK  117  A    between atoms: _301  and  _302
REMARK  118  A    between atoms: _301  and  _304
REMARK  119  A    between atoms: _304  and  _305
REMARK  120  A    between atoms: _308  and  _310
REMARK  121  A    between atoms: _310  and  _311
REMARK  122  A    between atoms: _313  and  _315
REMARK  123  A    between atoms: _315  and  _316
REMARK  124  A    between atoms: _315  and  _318
REMARK  125  A    between atoms: _318  and  _319
REMARK  126  A    between atoms: _324  and  _326
REMARK  127  A    between atoms: _326  and  _327
REMARK  128  A    between atoms: _326  and  _329
REMARK  129  A    between atoms: _329  and  _330
REMARK  130  A    between atoms: _333  and  _335
REMARK  131  A    between atoms: _335  and  _336
REMARK  132  A    between atoms: _335  and  _338
REMARK  133  A    between atoms: _338  and  _339
REMARK  134  A    between atoms: _344  and  _345
REMARK  135  A    between atoms: _347  and  _349
REMARK  136  A    between atoms: _349  and  _350
REMARK  137  A    between atoms: _349  and  _352
REMARK  138  A    between atoms: _352  and  _353
REMARK  139  A    between atoms: _356  and  _358
REMARK  140  A    between atoms: _358  and  _359
REMARK  141  A    between atoms: _358  and  _361
REMARK  142  A    between atoms: _361  and  _362
REMARK  143  A    between atoms: _367  and  _368
REMARK  144  A    between atoms: _371  and  _372
REMARK  145  A    between atoms: _377  and  _379
REMARK  146  A    between atoms: _379  and  _380
REMARK  147  A    between atoms: _379  and  _382
REMARK  148  A    between atoms: _382  and  _383
REMARK  149  A    between atoms: _388  and  _389
REMARK  150  A    between atoms: _391  and  _393
REMARK  151  A    between atoms: _393  and  _394
REMARK  152  A    between atoms: _393  and  _396
REMARK  153  A    between atoms: _396  and  _397
REMARK  154  A    between atoms: _397  and  _398
REMARK  155  A    between atoms: _400  and  _402
REMARK  156  A    between atoms: _402  and  _403
REMARK  157  A    between atoms: _402  and  _405
REMARK  158  A    between atoms: _405  and  _406
REMARK  159  A    between atoms: _411  and  _412
REMARK  160  A    between atoms: _414  and  _416
REMARK  161  A    between atoms: _416  and  _417
REMARK  162  A    between atoms: _416  and  _419
REMARK  163  A    between atoms: _419  and  _420
REMARK  164  A    between atoms: _423  and  _425
REMARK  165  A    between atoms: _425  and  _426
REMARK  166  A    between atoms: _429  and  _431
REMARK  167  A    between atoms: _431  and  _432
REMARK  168  A    between atoms: _434  and  _436
REMARK  169  A    between atoms: _436  and  _437
REMARK  170  A    between atoms: _436  and  _439
REMARK  171  A    between atoms: _439  and  _440
REMARK  172  A    between atoms: _445  and  _446
REMARK  173  A    between atoms: _448  and  _450
REMARK  174  A    between atoms: _450  and  _451
REMARK  175  A    between atoms: _450  and  _453
REMARK  176  A    between atoms: _453  and  _454
REMARK  177  A    between atoms: _459  and  _461
REMARK  178  A    between atoms: _461  and  _462
REMARK  179  A    between atoms: _461  and  _464
REMARK  180  A    between atoms: _466  and  _468
REMARK  181  A    between atoms: _468  and  _469
REMARK  182  A    between atoms: _468  and  _471
REMARK  183  A    between atoms: _471  and  _472
REMARK  184  A    between atoms: _472  and  _473
REMARK  185  A    between atoms: _473  and  _474
REMARK  186  A    between atoms: _483  and  _485
REMARK  187  A    between atoms: _485  and  _486
REMARK  188  A    between atoms: _489  and  _491
REMARK  189  A    between atoms: _491  and  _492
REMARK  190  A    between atoms: _495  and  _497
REMARK  191  A    between atoms: _497  and  _498
REMARK  192  A    between atoms: _497  and  _500
REMARK  193  A    between atoms: _500  and  _501
REMARK  194  A    between atoms: _511  and  _513
REMARK  195  A    between atoms: _513  and  _514
REMARK  196  A    between atoms: _513  and  _516
REMARK  197  A    between atoms: _516  and  _517
REMARK  198  A    between atoms: _520  and  _522
REMARK  199  A    between atoms: _522  and  _523
REMARK  200  A    between atoms: _522  and  _525
REMARK  201  A    between atoms: _525  and  _526
REMARK  202  A    between atoms: _526  and  _527
REMARK  203  A    between atoms: _530  and  _532
REMARK  204  A    between atoms: _532  and  _533
REMARK  205  A    between atoms: _532  and  _535
REMARK  206  A    between atoms: _535  and  _536
REMARK  207  A    between atoms: _539  and  _541
REMARK  208  A    between atoms: _541  and  _542
REMARK  209  A    between atoms: _541  and  _544
REMARK  210  A    between atoms: _544  and  _545
REMARK  211  A    between atoms: _545  and  _546
REMARK  212  A    between atoms: _546  and  _547
REMARK  213  A    between atoms: _547  and  _548
REMARK  214  A    between atoms: _552  and  _554
REMARK  215  A    between atoms: _554  and  _555
REMARK  216  A    between atoms: _554  and  _557
REMARK  217  A    between atoms: _557  and  _558
REMARK  218  A    between atoms: _558  and  _559
REMARK  219  A    between atoms: _562  and  _564
REMARK  220  A    between atoms: _564  and  _565
REMARK  221  A    between atoms: _564  and  _567
REMARK  222  A    between atoms: _567  and  _568
REMARK  223  A    between atoms: _574  and  _576
REMARK  224  A    between atoms: _576  and  _577
REMARK  225  A    between atoms: _576  and  _579
REMARK  226  A    between atoms: _579  and  _580
REMARK  227  A    between atoms: _586  and  _588
REMARK  228  A    between atoms: _588  and  _589
REMARK  229  A    between atoms: _588  and  _591
REMARK  230  A    between atoms: _591  and  _592
REMARK  231  A    between atoms: _592  and  _593
REMARK  232  A    between atoms: _596  and  _598
REMARK  233  A    between atoms: _598  and  _599
REMARK  234  A    between atoms: _598  and  _601
REMARK  235  A    between atoms: _604  and  _606
REMARK  236  A    between atoms: _606  and  _607
REMARK  237  A    between atoms: _610  and  _612
REMARK  238  A    between atoms: _612  and  _613
REMARK  239  A    between atoms: _612  and  _615
REMARK  240  A    between atoms: _615  and  _616
REMARK  241  A    between atoms: _619  and  _621
REMARK  242  A    between atoms: _621  and  _622
REMARK  243  A    between atoms: _621  and  _624
REMARK  244  A    between atoms: _627  and  _629
REMARK  245  A    between atoms: _629  and  _630
REMARK  246  A    between atoms: _629  and  _632
REMARK  247  A    between atoms: _632  and  _633
REMARK                            x       y       z     vdW  Elec       q    Type
REMARK                         _______ _______ _______ _____ _____    ______ ____
ROOT
ATOM      1  O   HOH     1       3.774  17.922  11.835  0.00  0.00    +0.000 OA
ENDROOT
TORSDOF 0
REMARK  Name = ../refined-set-2016/4x5y/4x5y_pocket.pdb
REMARK  247 active torsions:
REMARK  status: ('A' for Active; 'I' for Inactive)
REMARK    1  A    between atoms: _1  and  _3
REMARK    2  A    between atoms: _3  and  _4
REMARK    3  A    between atoms: _3  and  _6
REMARK    4  A    between atoms: _6  and  _7
REMARK    5  A    between atoms: _10  and  _12
REMARK    6  A    between atoms: _12  and  _13
REMARK    7  A    between atoms: _12  and  _15
REMARK    8  A    between atoms: _15  and  _16
REMARK    9  A    between atoms: _18  and  _20
REMARK   10  A    between atoms: _20  and  _21
REMARK   11  A    between atoms: _20  and  _23
REMARK   12  A    between atoms: _23  and  _24
REMARK   13  A    between atoms: _26  and  _28
REMARK   14  A    between atoms: _28  and  _29
REMARK   15  A    between atoms: _31  and  _33
REMARK   16  A    between atoms: _33  and  _34
REMARK   17  A    between atoms: _37  and  _39
REMARK   18  A    between atoms: _39  and  _40
REMARK   19  A    between atoms: _39  and  _42
REMARK   20  A    between atoms: _42  and  _43
REMARK   21  A    between atoms: _49  and  _51
REMARK   22  A    between atoms: _51  and  _52
REMARK   23  A    between atoms: _51  and  _54
REMARK   24  A    between atoms: _54  and  _55
REMARK   25  A    between atoms: _58  and  _60
REMARK   26  A    between atoms: _60  and  _61
REMARK   27  A    between atoms: _64  and  _66
REMARK   28  A    between atoms: _66  and  _67
REMARK   29  A    between atoms: _66  and  _69
REMARK   30  A    between atoms: _69  and  _70
REMARK   31  A    between atoms: _73  and  _75
REMARK   32  A    between atoms: _75  and  _76
REMARK   33  A    between atoms: _75  and  _78
REMARK   34  A    between atoms: _78  and  _79
REMARK   35  A    between atoms: _81  and  _83
REMARK   36  A    between atoms: _83  and  _84
REMARK   37  A    between atoms: _83  and  _86
REMARK   38  A    between atoms: _86  and  _87
REMARK   39  A    between atoms: _87  and  _88
REMARK   40  A    between atoms: _91  and  _93
REMARK   41  A    between atoms: _93  and  _94
REMARK   42  A    between atoms: _93  and  _96
REMARK   43  A    between atoms: _96  and  _97
REMARK   44  A    between atoms: _100  and  _102
REMARK   45  A    between atoms: _102  and  _103
REMARK   46  A    between atoms: _102  and  _105
REMARK   47  A    between atoms: _105  and  _106
REMARK   48  A    between atoms: _111  and  _113
REMARK   49  A    between atoms: _113  and  _114
REMARK   50  A    between atoms: _117  and  _119
REMARK   51  A    between atoms: _119  and  _120
REMARK   52  A    between atoms: _119  and  _122
REMARK   53  A    between atoms: _122  and  _123
REMARK   54  A    between atoms: _133  and  _135
REMARK   55  A    between atoms: _135  and  _136
REMARK   56  A    between atoms: _135  and  _138
REMARK   57  A    between atoms: _138  and  _139
REMARK   58  A    between atoms: _142  and  _144
REMARK   59  A    between atoms: _144  and  _145
REMARK   60  A    between atoms: _144  and  _147
REMARK   61  A    between atoms: _147  and  _148
REMARK   62  A    between atoms: _158  and  _160
REMARK   63  A    between atoms: _160  and  _161
REMARK   64  A    between atoms: _160  and  _163
REMARK   65  A    between atoms: _163  and  _164
REMARK   66  A    between atoms: _169  and  _171
REMARK   67  A    between atoms: _171  and  _172
REMARK   68  A    between atoms: _174  and  _176
REMARK   69  A    between atoms: _176  and  _177
REMARK   70  A    between atoms: _176  and  _179
REMARK   71  A    between atoms: _179  and  _180
REMARK   72  A    between atoms: _190  and  _192
REMARK   73  A    between atoms: _192  and  _193
REMARK   74  A    between atoms: _192  and  _195
REMARK   75  A    between atoms: _195  and  _196
REMARK   76  A    between atoms: _199  and  _201
REMARK   77  A    between atoms: _201  and  _202
REMARK   78  A    between atoms: _201  and  _204
REMARK   79  A    between atoms: _204  and  _205
REMARK   80  A    between atoms: _205  and  _206
REMARK   81  A    between atoms: _208  and  _210
REMARK   82  A    between atoms: _210  and  _211
REMARK   83  A    between atoms: _210  and  _213
REMARK   84  A    between atoms: _215  and  _217
REMARK   85  A    between atoms: _217  and  _218
REMARK   86  A    between atoms: _221  and  _223
REMARK   87  A    between atoms: _223  and  _224
REMARK   88  A    between atoms: _223  and  _226
REMARK   89  A    between atoms: _226  and  _227
REMARK   90  A    between atoms: _233  and  _235
REMARK   91  A    between atoms: _235  and  _236
REMARK   92  A    between atoms: _235  and  _238
REMARK   93  A    between atoms: _238  and  _239
REMARK   94  A    between atoms: _239  and  _240
REMARK   95  A    between atoms: _242  and  _244
REMARK   96  A    between atoms: _244  and  _245
REMARK   97  A    between atoms: _244  and  _247
REMARK   98  A    between atoms: _250  and  _252
REMARK   99  A    between atoms: _252  and  _253
REMARK  100  A    between atoms: _252  and  _255
REMARK  101  A    between atoms: _257  and  _259
REMARK  102  A    between atoms: _259  and  _260
REMARK  103  A    between atoms: _263  and  _265
REMARK  104  A    between atoms: _265  and  _266
REMARK  105  A    between atoms: _265  and  _268
REMARK  106  A    between atoms: _268  and  _269
REMARK  107  A    between atoms: _274  and  _275
REMARK  108  A    between atoms: _278  and  _279
REMARK  109  A    between atoms: _284  and  _286
REMARK  110  A    between atoms: _286  and  _287
REMARK  111  A    between atoms: _286  and  _289
REMARK  112  A    between atoms: _289  and  _290
REMARK  113  A    between atoms: _290  and  _291
REMARK  114  A    between atoms: _293  and  _295
REMARK  115  A    between atoms: _295  and  _296
REMARK  116  A    between atoms: _299  and  _301
REMARK  117  A    between atoms: _301  and  _302
REMARK  118  A    between atoms: _301  and  _304
REMARK  119  A    between atoms: _304  and  _305
REMARK  120  A    between atoms: _308  and  _310
REMARK  121  A    between atoms: _310  and  _311
REMARK  122  A    between atoms: _313  and  _315
REMARK  123  A    between atoms: _315  and  _316
REMARK  124  A    between atoms: _315  and  _318
REMARK  125  A    between atoms: _318  and  _319
REMARK  126  A    between atoms: _324  and  _326
REMARK  127  A    between atoms: _326  and  _327
REMARK  128  A    between atoms: _326  and  _329
REMARK  129  A    between atoms: _329  and  _330
REMARK  130  A    between atoms: _333  and  _335
REMARK  131  A    between atoms: _335  and  _336
REMARK  132  A    between atoms: _335  and  _338
REMARK  133  A    between atoms: _338  and  _339
REMARK  134  A    between atoms: _344  and  _345
REMARK  135  A    between atoms: _347  and  _349
REMARK  136  A    between atoms: _349  and  _350
REMARK  137  A    between atoms: _349  and  _352
REMARK  138  A    between atoms: _352  and  _353
REMARK  139  A    between atoms: _356  and  _358
REMARK  140  A    between atoms: _358  and  _359
REMARK  141  A    between atoms: _358  and  _361
REMARK  142  A    between atoms: _361  and  _362
REMARK  143  A    between atoms: _367  and  _368
REMARK  144  A    between atoms: _371  and  _372
REMARK  145  A    between atoms: _377  and  _379
REMARK  146  A    between atoms: _379  and  _380
REMARK  147  A    between atoms: _379  and  _382
REMARK  148  A    between atoms: _382  and  _383
REMARK  149  A    between atoms: _388  and  _389
REMARK  150  A    between atoms: _391  and  _393
REMARK  151  A    between atoms: _393  and  _394
REMARK  152  A    between atoms: _393  and  _396
REMARK  153  A    between atoms: _396  and  _397
REMARK  154  A    between atoms: _397  and  _398
REMARK  155  A    between atoms: _400  and  _402
REMARK  156  A    between atoms: _402  and  _403
REMARK  157  A    between atoms: _402  and  _405
REMARK  158  A    between atoms: _405  and  _406
REMARK  159  A    between atoms: _411  and  _412
REMARK  160  A    between atoms: _414  and  _416
REMARK  161  A    between atoms: _416  and  _417
REMARK  162  A    between atoms: _416  and  _419
REMARK  163  A    between atoms: _419  and  _420
REMARK  164  A    between atoms: _423  and  _425
REMARK  165  A    between atoms: _425  and  _426
REMARK  166  A    between atoms: _429  and  _431
REMARK  167  A    between atoms: _431  and  _432
REMARK  168  A    between atoms: _434  and  _436
REMARK  169  A    between atoms: _436  and  _437
REMARK  170  A    between atoms: _436  and  _439
REMARK  171  A    between atoms: _439  and  _440
REMARK  172  A    between atoms: _445  and  _446
REMARK  173  A    between atoms: _448  and  _450
REMARK  174  A    between atoms: _450  and  _451
REMARK  175  A    between atoms: _450  and  _453
REMARK  176  A    between atoms: _453  and  _454
REMARK  177  A    between atoms: _459  and  _461
REMARK  178  A    between atoms: _461  and  _462
REMARK  179  A    between atoms: _461  and  _464
REMARK  180  A    between atoms: _466  and  _468
REMARK  181  A    between atoms: _468  and  _469
REMARK  182  A    between atoms: _468  and  _471
REMARK  183  A    between atoms: _471  and  _472
REMARK  184  A    between atoms: _472  and  _473
REMARK  185  A    between atoms: _473  and  _474
REMARK  186  A    between atoms: _483  and  _485
REMARK  187  A    between atoms: _485  and  _486
REMARK  188  A    between atoms: _489  and  _491
REMARK  189  A    between atoms: _491  and  _492
REMARK  190  A    between atoms: _495  and  _497
REMARK  191  A    between atoms: _497  and  _498
REMARK  192  A    between atoms: _497  and  _500
REMARK  193  A    between atoms: _500  and  _501
REMARK  194  A    between atoms: _511  and  _513
REMARK  195  A    between atoms: _513  and  _514
REMARK  196  A    between atoms: _513  and  _516
REMARK  197  A    between atoms: _516  and  _517
REMARK  198  A    between atoms: _520  and  _522
REMARK  199  A    between atoms: _522  and  _523
REMARK  200  A    between atoms: _522  and  _525
REMARK  201  A    between atoms: _525  and  _526
REMARK  202  A    between atoms: _526  and  _527
REMARK  203  A    between atoms: _530  and  _532
REMARK  204  A    between atoms: _532  and  _533
REMARK  205  A    between atoms: _532  and  _535
REMARK  206  A    between atoms: _535  and  _536
REMARK  207  A    between atoms: _539  and  _541
REMARK  208  A    between atoms: _541  and  _542
REMARK  209  A    between atoms: _541  and  _544
REMARK  210  A    between atoms: _544  and  _545
REMARK  211  A    between atoms: _545  and  _546
REMARK  212  A    between atoms: _546  and  _547
REMARK  213  A    between atoms: _547  and  _548
REMARK  214  A    between atoms: _552  and  _554
REMARK  215  A    between atoms: _554  and  _555
REMARK  216  A    between atoms: _554  and  _557
REMARK  217  A    between atoms: _557  and  _558
REMARK  218  A    between atoms: _558  and  _559
REMARK  219  A    between atoms: _562  and  _564
REMARK  220  A    between atoms: _564  and  _565
REMARK  221  A    between atoms: _564  and  _567
REMARK  222  A    between atoms: _567  and  _568
REMARK  223  A    between atoms: _574  and  _576
REMARK  224  A    between atoms: _576  and  _577
REMARK  225  A    between atoms: _576  and  _579
REMARK  226  A    between atoms: _579  and  _580
REMARK  227  A    between atoms: _586  and  _588
REMARK  228  A    between atoms: _588  and  _589
REMARK  229  A    between atoms: _588  and  _591
REMARK  230  A    between atoms: _591  and  _592
REMARK  231  A    between atoms: _592  and  _593
REMARK  232  A    between atoms: _596  and  _598
REMARK  233  A    between atoms: _598  and  _599
REMARK  234  A    between atoms: _598  and  _601
REMARK  235  A    between atoms: _604  and  _606
REMARK  236  A    between atoms: _606  and  _607
REMARK  237  A    between atoms: _610  and  _612
REMARK  238  A    between atoms: _612  and  _613
REMARK  239  A    between atoms: _612  and  _615
REMARK  240  A    between atoms: _615  and  _616
REMARK  241  A    between atoms: _619  and  _621
REMARK  242  A    between atoms: _621  and  _622
REMARK  243  A    between atoms: _621  and  _624
REMARK  244  A    between atoms: _627  and  _629
REMARK  245  A    between atoms: _629  and  _630
REMARK  246  A    between atoms: _629  and  _632
REMARK  247  A    between atoms: _632  and  _633
REMARK                            x       y       z     vdW  Elec       q    Type
REMARK                         _______ _______ _______ _____ _____    ______ ____
ROOT
ATOM      1  O   HOH     1      17.776   5.532   5.832  0.00  0.00    +0.000 OA
ENDROOT
TORSDOF 0
REMARK  Name = ../refined-set-2016/4x5y/4x5y_pocket.pdb
REMARK  247 active torsions:
REMARK  status: ('A' for Active; 'I' for Inactive)
REMARK    1  A    between atoms: _1  and  _3
REMARK    2  A    between atoms: _3  and  _4
REMARK    3  A    between atoms: _3  and  _6
REMARK    4  A    between atoms: _6  and  _7
REMARK    5  A    between atoms: _10  and  _12
REMARK    6  A    between atoms: _12  and  _13
REMARK    7  A    between atoms: _12  and  _15
REMARK    8  A    between atoms: _15  and  _16
REMARK    9  A    between atoms: _18  and  _20
REMARK   10  A    between atoms: _20  and  _21
REMARK   11  A    between atoms: _20  and  _23
REMARK   12  A    between atoms: _23  and  _24
REMARK   13  A    between atoms: _26  and  _28
REMARK   14  A    between atoms: _28  and  _29
REMARK   15  A    between atoms: _31  and  _33
REMARK   16  A    between atoms: _33  and  _34
REMARK   17  A    between atoms: _37  and  _39
REMARK   18  A    between atoms: _39  and  _40
REMARK   19  A    between atoms: _39  and  _42
REMARK   20  A    between atoms: _42  and  _43
REMARK   21  A    between atoms: _49  and  _51
REMARK   22  A    between atoms: _51  and  _52
REMARK   23  A    between atoms: _51  and  _54
REMARK   24  A    between atoms: _54  and  _55
REMARK   25  A    between atoms: _58  and  _60
REMARK   26  A    between atoms: _60  and  _61
REMARK   27  A    between atoms: _64  and  _66
REMARK   28  A    between atoms: _66  and  _67
REMARK   29  A    between atoms: _66  and  _69
REMARK   30  A    between atoms: _69  and  _70
REMARK   31  A    between atoms: _73  and  _75
REMARK   32  A    between atoms: _75  and  _76
REMARK   33  A    between atoms: _75  and  _78
REMARK   34  A    between atoms: _78  and  _79
REMARK   35  A    between atoms: _81  and  _83
REMARK   36  A    between atoms: _83  and  _84
REMARK   37  A    between atoms: _83  and  _86
REMARK   38  A    between atoms: _86  and  _87
REMARK   39  A    between atoms: _87  and  _88
REMARK   40  A    between atoms: _91  and  _93
REMARK   41  A    between atoms: _93  and  _94
REMARK   42  A    between atoms: _93  and  _96
REMARK   43  A    between atoms: _96  and  _97
REMARK   44  A    between atoms: _100  and  _102
REMARK   45  A    between atoms: _102  and  _103
REMARK   46  A    between atoms: _102  and  _105
REMARK   47  A    between atoms: _105  and  _106
REMARK   48  A    between atoms: _111  and  _113
REMARK   49  A    between atoms: _113  and  _114
REMARK   50  A    between atoms: _117  and  _119
REMARK   51  A    between atoms: _119  and  _120
REMARK   52  A    between atoms: _119  and  _122
REMARK   53  A    between atoms: _122  and  _123
REMARK   54  A    between atoms: _133  and  _135
REMARK   55  A    between atoms: _135  and  _136
REMARK   56  A    between atoms: _135  and  _138
REMARK   57  A    between atoms: _138  and  _139
REMARK   58  A    between atoms: _142  and  _144
REMARK   59  A    between atoms: _144  and  _145
REMARK   60  A    between atoms: _144  and  _147
REMARK   61  A    between atoms: _147  and  _148
REMARK   62  A    between atoms: _158  and  _160
REMARK   63  A    between atoms: _160  and  _161
REMARK   64  A    between atoms: _160  and  _163
REMARK   65  A    between atoms: _163  and  _164
REMARK   66  A    between atoms: _169  and  _171
REMARK   67  A    between atoms: _171  and  _172
REMARK   68  A    between atoms: _174  and  _176
REMARK   69  A    between atoms: _176  and  _177
REMARK   70  A    between atoms: _176  and  _179
REMARK   71  A    between atoms: _179  and  _180
REMARK   72  A    between atoms: _190  and  _192
REMARK   73  A    between atoms: _192  and  _193
REMARK   74  A    between atoms: _192  and  _195
REMARK   75  A    between atoms: _195  and  _196
REMARK   76  A    between atoms: _199  and  _201
REMARK   77  A    between atoms: _201  and  _202
REMARK   78  A    between atoms: _201  and  _204
REMARK   79  A    between atoms: _204  and  _205
REMARK   80  A    between atoms: _205  and  _206
REMARK   81  A    between atoms: _208  and  _210
REMARK   82  A    between atoms: _210  and  _211
REMARK   83  A    between atoms: _210  and  _213
REMARK   84  A    between atoms: _215  and  _217
REMARK   85  A    between atoms: _217  and  _218
REMARK   86  A    between atoms: _221  and  _223
REMARK   87  A    between atoms: _223  and  _224
REMARK   88  A    between atoms: _223  and  _226
REMARK   89  A    between atoms: _226  and  _227
REMARK   90  A    between atoms: _233  and  _235
REMARK   91  A    between atoms: _235  and  _236
REMARK   92  A    between atoms: _235  and  _238
REMARK   93  A    between atoms: _238  and  _239
REMARK   94  A    between atoms: _239  and  _240
REMARK   95  A    between atoms: _242  and  _244
REMARK   96  A    between atoms: _244  and  _245
REMARK   97  A    between atoms: _244  and  _247
REMARK   98  A    between atoms: _250  and  _252
REMARK   99  A    between atoms: _252  and  _253
REMARK  100  A    between atoms: _252  and  _255
REMARK  101  A    between atoms: _257  and  _259
REMARK  102  A    between atoms: _259  and  _260
REMARK  103  A    between atoms: _263  and  _265
REMARK  104  A    between atoms: _265  and  _266
REMARK  105  A    between atoms: _265  and  _268
REMARK  106  A    between atoms: _268  and  _269
REMARK  107  A    between atoms: _274  and  _275
REMARK  108  A    between atoms: _278  and  _279
REMARK  109  A    between atoms: _284  and  _286
REMARK  110  A    between atoms: _286  and  _287
REMARK  111  A    between atoms: _286  and  _289
REMARK  112  A    between atoms: _289  and  _290
REMARK  113  A    between atoms: _290  and  _291
REMARK  114  A    between atoms: _293  and  _295
REMARK  115  A    between atoms: _295  and  _296
REMARK  116  A    between atoms: _299  and  _301
REMARK  117  A    between atoms: _301  and  _302
REMARK  118  A    between atoms: _301  and  _304
REMARK  119  A    between atoms: _304  and  _305
REMARK  120  A    between atoms: _308  and  _310
REMARK  121  A    between atoms: _310  and  _311
REMARK  122  A    between atoms: _313  and  _315
REMARK  123  A    between atoms: _315  and  _316
REMARK  124  A    between atoms: _315  and  _318
REMARK  125  A    between atoms: _318  and  _319
REMARK  126  A    between atoms: _324  and  _326
REMARK  127  A    between atoms: _326  and  _327
REMARK  128  A    between atoms: _326  and  _329
REMARK  129  A    between atoms: _329  and  _330
REMARK  130  A    between atoms: _333  and  _335
REMARK  131  A    between atoms: _335  and  _336
REMARK  132  A    between atoms: _335  and  _338
REMARK  133  A    between atoms: _338  and  _339
REMARK  134  A    between atoms: _344  and  _345
REMARK  135  A    between atoms: _347  and  _349
REMARK  136  A    between atoms: _349  and  _350
REMARK  137  A    between atoms: _349  and  _352
REMARK  138  A    between atoms: _352  and  _353
REMARK  139  A    between atoms: _356  and  _358
REMARK  140  A    between atoms: _358  and  _359
REMARK  141  A    between atoms: _358  and  _361
REMARK  142  A    between atoms: _361  and  _362
REMARK  143  A    between atoms: _367  and  _368
REMARK  144  A    between atoms: _371  and  _372
REMARK  145  A    between atoms: _377  and  _379
REMARK  146  A    between atoms: _379  and  _380
REMARK  147  A    between atoms: _379  and  _382
REMARK  148  A    between atoms: _382  and  _383
REMARK  149  A    between atoms: _388  and  _389
REMARK  150  A    between atoms: _391  and  _393
REMARK  151  A    between atoms: _393  and  _394
REMARK  152  A    between atoms: _393  and  _396
REMARK  153  A    between atoms: _396  and  _397
REMARK  154  A    between atoms: _397  and  _398
REMARK  155  A    between atoms: _400  and  _402
REMARK  156  A    between atoms: _402  and  _403
REMARK  157  A    between atoms: _402  and  _405
REMARK  158  A    between atoms: _405  and  _406
REMARK  159  A    between atoms: _411  and  _412
REMARK  160  A    between atoms: _414  and  _416
REMARK  161  A    between atoms: _416  and  _417
REMARK  162  A    between atoms: _416  and  _419
REMARK  163  A    between atoms: _419  and  _420
REMARK  164  A    between atoms: _423  and  _425
REMARK  165  A    between atoms: _425  and  _426
REMARK  166  A    between atoms: _429  and  _431
REMARK  167  A    between atoms: _431  and  _432
REMARK  168  A    between atoms: _434  and  _436
REMARK  169  A    between atoms: _436  and  _437
REMARK  170  A    between atoms: _436  and  _439
REMARK  171  A    between atoms: _439  and  _440
REMARK  172  A    between atoms: _445  and  _446
REMARK  173  A    between atoms: _448  and  _450
REMARK  174  A    between atoms: _450  and  _451
REMARK  175  A    between atoms: _450  and  _453
REMARK  176  A    between atoms: _453  and  _454
REMARK  177  A    between atoms: _459  and  _461
REMARK  178  A    between atoms: _461  and  _462
REMARK  179  A    between atoms: _461  and  _464
REMARK  180  A    between atoms: _466  and  _468
REMARK  181  A    between atoms: _468  and  _469
REMARK  182  A    between atoms: _468  and  _471
REMARK  183  A    between atoms: _471  and  _472
REMARK  184  A    between atoms: _472  and  _473
REMARK  185  A    between atoms: _473  and  _474
REMARK  186  A    between atoms: _483  and  _485
REMARK  187  A    between atoms: _485  and  _486
REMARK  188  A    between atoms: _489  and  _491
REMARK  189  A    between atoms: _491  and  _492
REMARK  190  A    between atoms: _495  and  _497
REMARK  191  A    between atoms: _497  and  _498
REMARK  192  A    between atoms: _497  and  _500
REMARK  193  A    between atoms: _500  and  _501
REMARK  194  A    between atoms: _511  and  _513
REMARK  195  A    between atoms: _513  and  _514
REMARK  196  A    between atoms: _513  and  _516
REMARK  197  A    between atoms: _516  and  _517
REMARK  198  A    between atoms: _520  and  _522
REMARK  199  A    between atoms: _522  and  _523
REMARK  200  A    between atoms: _522  and  _525
REMARK  201  A    between atoms: _525  and  _526
REMARK  202  A    between atoms: _526  and  _527
REMARK  203  A    between atoms: _530  and  _532
REMARK  204  A    between atoms: _532  and  _533
REMARK  205  A    between atoms: _532  and  _535
REMARK  206  A    between atoms: _535  and  _536
REMARK  207  A    between atoms: _539  and  _541
REMARK  208  A    between atoms: _541  and  _542
REMARK  209  A    between atoms: _541  and  _544
REMARK  210  A    between atoms: _544  and  _545
REMARK  211  A    between atoms: _545  and  _546
REMARK  212  A    between atoms: _546  and  _547
REMARK  213  A    between atoms: _547  and  _548
REMARK  214  A    between atoms: _552  and  _554
REMARK  215  A    between atoms: _554  and  _555
REMARK  216  A    between atoms: _554  and  _557
REMARK  217  A    between atoms: _557  and  _558
REMARK  218  A    between atoms: _558  and  _559
REMARK  219  A    between atoms: _562  and  _564
REMARK  220  A    between atoms: _564  and  _565
REMARK  221  A    between atoms: _564  and  _567
REMARK  222  A    between atoms: _567  and  _568
REMARK  223  A    between atoms: _574  and  _576
REMARK  224  A    between atoms: _576  and  _577
REMARK  225  A    between atoms: _576  and  _579
REMARK  226  A    between atoms: _579  and  _580
REMARK  227  A    between atoms: _586  and  _588
REMARK  228  A    between atoms: _588  and  _589
REMARK  229  A    between atoms: _588  and  _591
REMARK  230  A    between atoms: _591  and  _592
REMARK  231  A    between atoms: _592  and  _593
REMARK  232  A    between atoms: _596  and  _598
REMARK  233  A    between atoms: _598  and  _599
REMARK  234  A    between atoms: _598  and  _601
REMARK  235  A    between atoms: _604  and  _606
REMARK  236  A    between atoms: _606  and  _607
REMARK  237  A    between atoms: _610  and  _612
REMARK  238  A    between atoms: _612  and  _613
REMARK  239  A    between atoms: _612  and  _615
REMARK  240  A    between atoms: _615  and  _616
REMARK  241  A    between atoms: _619  and  _621
REMARK  242  A    between atoms: _621  and  _622
REMARK  243  A    between atoms: _621  and  _624
REMARK  244  A    between atoms: _627  and  _629
REMARK  245  A    between atoms: _629  and  _630
REMARK  246  A    between atoms: _629  and  _632
REMARK  247  A    between atoms: _632  and  _633
REMARK                            x       y       z     vdW  Elec       q    Type
REMARK                         _______ _______ _______ _____ _____    ______ ____
ROOT
ATOM      1  O   HOH     1      18.249  11.469  19.417  0.00  0.00    +0.000 OA
ENDROOT
TORSDOF 0
REMARK  Name = ../refined-set-2016/4x5y/4x5y_pocket.pdb
REMARK  247 active torsions:
REMARK  status: ('A' for Active; 'I' for Inactive)
REMARK    1  A    between atoms: _1  and  _3
REMARK    2  A    between atoms: _3  and  _4
REMARK    3  A    between atoms: _3  and  _6
REMARK    4  A    between atoms: _6  and  _7
REMARK    5  A    between atoms: _10  and  _12
REMARK    6  A    between atoms: _12  and  _13
REMARK    7  A    between atoms: _12  and  _15
REMARK    8  A    between atoms: _15  and  _16
REMARK    9  A    between atoms: _18  and  _20
REMARK   10  A    between atoms: _20  and  _21
REMARK   11  A    between atoms: _20  and  _23
REMARK   12  A    between atoms: _23  and  _24
REMARK   13  A    between atoms: _26  and  _28
REMARK   14  A    between atoms: _28  and  _29
REMARK   15  A    between atoms: _31  and  _33
REMARK   16  A    between atoms: _33  and  _34
REMARK   17  A    between atoms: _37  and  _39
REMARK   18  A    between atoms: _39  and  _40
REMARK   19  A    between atoms: _39  and  _42
REMARK   20  A    between atoms: _42  and  _43
REMARK   21  A    between atoms: _49  and  _51
REMARK   22  A    between atoms: _51  and  _52
REMARK   23  A    between atoms: _51  and  _54
REMARK   24  A    between atoms: _54  and  _55
REMARK   25  A    between atoms: _58  and  _60
REMARK   26  A    between atoms: _60  and  _61
REMARK   27  A    between atoms: _64  and  _66
REMARK   28  A    between atoms: _66  and  _67
REMARK   29  A    between atoms: _66  and  _69
REMARK   30  A    between atoms: _69  and  _70
REMARK   31  A    between atoms: _73  and  _75
REMARK   32  A    between atoms: _75  and  _76
REMARK   33  A    between atoms: _75  and  _78
REMARK   34  A    between atoms: _78  and  _79
REMARK   35  A    between atoms: _81  and  _83
REMARK   36  A    between atoms: _83  and  _84
REMARK   37  A    between atoms: _83  and  _86
REMARK   38  A    between atoms: _86  and  _87
REMARK   39  A    between atoms: _87  and  _88
REMARK   40  A    between atoms: _91  and  _93
REMARK   41  A    between atoms: _93  and  _94
REMARK   42  A    between atoms: _93  and  _96
REMARK   43  A    between atoms: _96  and  _97
REMARK   44  A    between atoms: _100  and  _102
REMARK   45  A    between atoms: _102  and  _103
REMARK   46  A    between atoms: _102  and  _105
REMARK   47  A    between atoms: _105  and  _106
REMARK   48  A    between atoms: _111  and  _113
REMARK   49  A    between atoms: _113  and  _114
REMARK   50  A    between atoms: _117  and  _119
REMARK   51  A    between atoms: _119  and  _120
REMARK   52  A    between atoms: _119  and  _122
REMARK   53  A    between atoms: _122  and  _123
REMARK   54  A    between atoms: _133  and  _135
REMARK   55  A    between atoms: _135  and  _136
REMARK   56  A    between atoms: _135  and  _138
REMARK   57  A    between atoms: _138  and  _139
REMARK   58  A    between atoms: _142  and  _144
REMARK   59  A    between atoms: _144  and  _145
REMARK   60  A    between atoms: _144  and  _147
REMARK   61  A    between atoms: _147  and  _148
REMARK   62  A    between atoms: _158  and  _160
REMARK   63  A    between atoms: _160  and  _161
REMARK   64  A    between atoms: _160  and  _163
REMARK   65  A    between atoms: _163  and  _164
REMARK   66  A    between atoms: _169  and  _171
REMARK   67  A    between atoms: _171  and  _172
REMARK   68  A    between atoms: _174  and  _176
REMARK   69  A    between atoms: _176  and  _177
REMARK   70  A    between atoms: _176  and  _179
REMARK   71  A    between atoms: _179  and  _180
REMARK   72  A    between atoms: _190  and  _192
REMARK   73  A    between atoms: _192  and  _193
REMARK   74  A    between atoms: _192  and  _195
REMARK   75  A    between atoms: _195  and  _196
REMARK   76  A    between atoms: _199  and  _201
REMARK   77  A    between atoms: _201  and  _202
REMARK   78  A    between atoms: _201  and  _204
REMARK   79  A    between atoms: _204  and  _205
REMARK   80  A    between atoms: _205  and  _206
REMARK   81  A    between atoms: _208  and  _210
REMARK   82  A    between atoms: _210  and  _211
REMARK   83  A    between atoms: _210  and  _213
REMARK   84  A    between atoms: _215  and  _217
REMARK   85  A    between atoms: _217  and  _218
REMARK   86  A    between atoms: _221  and  _223
REMARK   87  A    between atoms: _223  and  _224
REMARK   88  A    between atoms: _223  and  _226
REMARK   89  A    between atoms: _226  and  _227
REMARK   90  A    between atoms: _233  and  _235
REMARK   91  A    between atoms: _235  and  _236
REMARK   92  A    between atoms: _235  and  _238
REMARK   93  A    between atoms: _238  and  _239
REMARK   94  A    between atoms: _239  and  _240
REMARK   95  A    between atoms: _242  and  _244
REMARK   96  A    between atoms: _244  and  _245
REMARK   97  A    between atoms: _244  and  _247
REMARK   98  A    between atoms: _250  and  _252
REMARK   99  A    between atoms: _252  and  _253
REMARK  100  A    between atoms: _252  and  _255
REMARK  101  A    between atoms: _257  and  _259
REMARK  102  A    between atoms: _259  and  _260
REMARK  103  A    between atoms: _263  and  _265
REMARK  104  A    between atoms: _265  and  _266
REMARK  105  A    between atoms: _265  and  _268
REMARK  106  A    between atoms: _268  and  _269
REMARK  107  A    between atoms: _274  and  _275
REMARK  108  A    between atoms: _278  and  _279
REMARK  109  A    between atoms: _284  and  _286
REMARK  110  A    between atoms: _286  and  _287
REMARK  111  A    between atoms: _286  and  _289
REMARK  112  A    between atoms: _289  and  _290
REMARK  113  A    between atoms: _290  and  _291
REMARK  114  A    between atoms: _293  and  _295
REMARK  115  A    between atoms: _295  and  _296
REMARK  116  A    between atoms: _299  and  _301
REMARK  117  A    between atoms: _301  and  _302
REMARK  118  A    between atoms: _301  and  _304
REMARK  119  A    between atoms: _304  and  _305
REMARK  120  A    between atoms: _308  and  _310
REMARK  121  A    between atoms: _310  and  _311
REMARK  122  A    between atoms: _313  and  _315
REMARK  123  A    between atoms: _315  and  _316
REMARK  124  A    between atoms: _315  and  _318
REMARK  125  A    between atoms: _318  and  _319
REMARK  126  A    between atoms: _324  and  _326
REMARK  127  A    between atoms: _326  and  _327
REMARK  128  A    between atoms: _326  and  _329
REMARK  129  A    between atoms: _329  and  _330
REMARK  130  A    between atoms: _333  and  _335
REMARK  131  A    between atoms: _335  and  _336
REMARK  132  A    between atoms: _335  and  _338
REMARK  133  A    between atoms: _338  and  _339
REMARK  134  A    between atoms: _344  and  _345
REMARK  135  A    between atoms: _347  and  _349
REMARK  136  A    between atoms: _349  and  _350
REMARK  137  A    between atoms: _349  and  _352
REMARK  138  A    between atoms: _352  and  _353
REMARK  139  A    between atoms: _356  and  _358
REMARK  140  A    between atoms: _358  and  _359
REMARK  141  A    between atoms: _358  and  _361
REMARK  142  A    between atoms: _361  and  _362
REMARK  143  A    between atoms: _367  and  _368
REMARK  144  A    between atoms: _371  and  _372
REMARK  145  A    between atoms: _377  and  _379
REMARK  146  A    between atoms: _379  and  _380
REMARK  147  A    between atoms: _379  and  _382
REMARK  148  A    between atoms: _382  and  _383
REMARK  149  A    between atoms: _388  and  _389
REMARK  150  A    between atoms: _391  and  _393
REMARK  151  A    between atoms: _393  and  _394
REMARK  152  A    between atoms: _393  and  _396
REMARK  153  A    between atoms: _396  and  _397
REMARK  154  A    between atoms: _397  and  _398
REMARK  155  A    between atoms: _400  and  _402
REMARK  156  A    between atoms: _402  and  _403
REMARK  157  A    between atoms: _402  and  _405
REMARK  158  A    between atoms: _405  and  _406
REMARK  159  A    between atoms: _411  and  _412
REMARK  160  A    between atoms: _414  and  _416
REMARK  161  A    between atoms: _416  and  _417
REMARK  162  A    between atoms: _416  and  _419
REMARK  163  A    between atoms: _419  and  _420
REMARK  164  A    between atoms: _423  and  _425
REMARK  165  A    between atoms: _425  and  _426
REMARK  166  A    between atoms: _429  and  _431
REMARK  167  A    between atoms: _431  and  _432
REMARK  168  A    between atoms: _434  and  _436
REMARK  169  A    between atoms: _436  and  _437
REMARK  170  A    between atoms: _436  and  _439
REMARK  171  A    between atoms: _439  and  _440
REMARK  172  A    between atoms: _445  and  _446
REMARK  173  A    between atoms: _448  and  _450
REMARK  174  A    between atoms: _450  and  _451
REMARK  175  A    between atoms: _450  and  _453
REMARK  176  A    between atoms: _453  and  _454
REMARK  177  A    between atoms: _459  and  _461
REMARK  178  A    between atoms: _461  and  _462
REMARK  179  A    between atoms: _461  and  _464
REMARK  180  A    between atoms: _466  and  _468
REMARK  181  A    between atoms: _468  and  _469
REMARK  182  A    between atoms: _468  and  _471
REMARK  183  A    between atoms: _471  and  _472
REMARK  184  A    between atoms: _472  and  _473
REMARK  185  A    between atoms: _473  and  _474
REMARK  186  A    between atoms: _483  and  _485
REMARK  187  A    between atoms: _485  and  _486
REMARK  188  A    between atoms: _489  and  _491
REMARK  189  A    between atoms: _491  and  _492
REMARK  190  A    between atoms: _495  and  _497
REMARK  191  A    between atoms: _497  and  _498
REMARK  192  A    between atoms: _497  and  _500
REMARK  193  A    between atoms: _500  and  _501
REMARK  194  A    between atoms: _511  and  _513
REMARK  195  A    between atoms: _513  and  _514
REMARK  196  A    between atoms: _513  and  _516
REMARK  197  A    between atoms: _516  and  _517
REMARK  198  A    between atoms: _520  and  _522
REMARK  199  A    between atoms: _522  and  _523
REMARK  200  A    between atoms: _522  and  _525
REMARK  201  A    between atoms: _525  and  _526
REMARK  202  A    between atoms: _526  and  _527
REMARK  203  A    between atoms: _530  and  _532
REMARK  204  A    between atoms: _532  and  _533
REMARK  205  A    between atoms: _532  and  _535
REMARK  206  A    between atoms: _535  and  _536
REMARK  207  A    between atoms: _539  and  _541
REMARK  208  A    between atoms: _541  and  _542
REMARK  209  A    between atoms: _541  and  _544
REMARK  210  A    between atoms: _544  and  _545
REMARK  211  A    between atoms: _545  and  _546
REMARK  212  A    between atoms: _546  and  _547
REMARK  213  A    between atoms: _547  and  _548
REMARK  214  A    between atoms: _552  and  _554
REMARK  215  A    between atoms: _554  and  _555
REMARK  216  A    between atoms: _554  and  _557
REMARK  217  A    between atoms: _557  and  _558
REMARK  218  A    between atoms: _558  and  _559
REMARK  219  A    between atoms: _562  and  _564
REMARK  220  A    between atoms: _564  and  _565
REMARK  221  A    between atoms: _564  and  _567
REMARK  222  A    between atoms: _567  and  _568
REMARK  223  A    between atoms: _574  and  _576
REMARK  224  A    between atoms: _576  and  _577
REMARK  225  A    between atoms: _576  and  _579
REMARK  226  A    between atoms: _579  and  _580
REMARK  227  A    between atoms: _586  and  _588
REMARK  228  A    between atoms: _588  and  _589
REMARK  229  A    between atoms: _588  and  _591
REMARK  230  A    between atoms: _591  and  _592
REMARK  231  A    between atoms: _592  and  _593
REMARK  232  A    between atoms: _596  and  _598
REMARK  233  A    between atoms: _598  and  _599
REMARK  234  A    between atoms: _598  and  _601
REMARK  235  A    between atoms: _604  and  _606
REMARK  236  A    between atoms: _606  and  _607
REMARK  237  A    between atoms: _610  and  _612
REMARK  238  A    between atoms: _612  and  _613
REMARK  239  A    between atoms: _612  and  _615
REMARK  240  A    between atoms: _615  and  _616
REMARK  241  A    between atoms: _619  and  _621
REMARK  242  A    between atoms: _621  and  _622
REMARK  243  A    between atoms: _621  and  _624
REMARK  244  A    between atoms: _627  and  _629
REMARK  245  A    between atoms: _629  and  _630
REMARK  246  A    between atoms: _629  and  _632
REMARK  247  A    between atoms: _632  and  _633
REMARK                            x       y       z     vdW  Elec       q    Type
REMARK                         _______ _______ _______ _____ _____    ______ ____
ROOT
ATOM      1  O   HOH     1      10.022   7.270  17.359  0.00  0.00    +0.000 OA
ENDROOT
TORSDOF 0
REMARK  Name = ../refined-set-2016/4x5y/4x5y_pocket.pdb
REMARK  247 active torsions:
REMARK  status: ('A' for Active; 'I' for Inactive)
REMARK    1  A    between atoms: _1  and  _3
REMARK    2  A    between atoms: _3  and  _4
REMARK    3  A    between atoms: _3  and  _6
REMARK    4  A    between atoms: _6  and  _7
REMARK    5  A    between atoms: _10  and  _12
REMARK    6  A    between atoms: _12  and  _13
REMARK    7  A    between atoms: _12  and  _15
REMARK    8  A    between atoms: _15  and  _16
REMARK    9  A    between atoms: _18  and  _20
REMARK   10  A    between atoms: _20  and  _21
REMARK   11  A    between atoms: _20  and  _23
REMARK   12  A    between atoms: _23  and  _24
REMARK   13  A    between atoms: _26  and  _28
REMARK   14  A    between atoms: _28  and  _29
REMARK   15  A    between atoms: _31  and  _33
REMARK   16  A    between atoms: _33  and  _34
REMARK   17  A    between atoms: _37  and  _39
REMARK   18  A    between atoms: _39  and  _40
REMARK   19  A    between atoms: _39  and  _42
REMARK   20  A    between atoms: _42  and  _43
REMARK   21  A    between atoms: _49  and  _51
REMARK   22  A    between atoms: _51  and  _52
REMARK   23  A    between atoms: _51  and  _54
REMARK   24  A    between atoms: _54  and  _55
REMARK   25  A    between atoms: _58  and  _60
REMARK   26  A    between atoms: _60  and  _61
REMARK   27  A    between atoms: _64  and  _66
REMARK   28  A    between atoms: _66  and  _67
REMARK   29  A    between atoms: _66  and  _69
REMARK   30  A    between atoms: _69  and  _70
REMARK   31  A    between atoms: _73  and  _75
REMARK   32  A    between atoms: _75  and  _76
REMARK   33  A    between atoms: _75  and  _78
REMARK   34  A    between atoms: _78  and  _79
REMARK   35  A    between atoms: _81  and  _83
REMARK   36  A    between atoms: _83  and  _84
REMARK   37  A    between atoms: _83  and  _86
REMARK   38  A    between atoms: _86  and  _87
REMARK   39  A    between atoms: _87  and  _88
REMARK   40  A    between atoms: _91  and  _93
REMARK   41  A    between atoms: _93  and  _94
REMARK   42  A    between atoms: _93  and  _96
REMARK   43  A    between atoms: _96  and  _97
REMARK   44  A    between atoms: _100  and  _102
REMARK   45  A    between atoms: _102  and  _103
REMARK   46  A    between atoms: _102  and  _105
REMARK   47  A    between atoms: _105  and  _106
REMARK   48  A    between atoms: _111  and  _113
REMARK   49  A    between atoms: _113  and  _114
REMARK   50  A    between atoms: _117  and  _119
REMARK   51  A    between atoms: _119  and  _120
REMARK   52  A    between atoms: _119  and  _122
REMARK   53  A    between atoms: _122  and  _123
REMARK   54  A    between atoms: _133  and  _135
REMARK   55  A    between atoms: _135  and  _136
REMARK   56  A    between atoms: _135  and  _138
REMARK   57  A    between atoms: _138  and  _139
REMARK   58  A    between atoms: _142  and  _144
REMARK   59  A    between atoms: _144  and  _145
REMARK   60  A    between atoms: _144  and  _147
REMARK   61  A    between atoms: _147  and  _148
REMARK   62  A    between atoms: _158  and  _160
REMARK   63  A    between atoms: _160  and  _161
REMARK   64  A    between atoms: _160  and  _163
REMARK   65  A    between atoms: _163  and  _164
REMARK   66  A    between atoms: _169  and  _171
REMARK   67  A    between atoms: _171  and  _172
REMARK   68  A    between atoms: _174  and  _176
REMARK   69  A    between atoms: _176  and  _177
REMARK   70  A    between atoms: _176  and  _179
REMARK   71  A    between atoms: _179  and  _180
REMARK   72  A    between atoms: _190  and  _192
REMARK   73  A    between atoms: _192  and  _193
REMARK   74  A    between atoms: _192  and  _195
REMARK   75  A    between atoms: _195  and  _196
REMARK   76  A    between atoms: _199  and  _201
REMARK   77  A    between atoms: _201  and  _202
REMARK   78  A    between atoms: _201  and  _204
REMARK   79  A    between atoms: _204  and  _205
REMARK   80  A    between atoms: _205  and  _206
REMARK   81  A    between atoms: _208  and  _210
REMARK   82  A    between atoms: _210  and  _211
REMARK   83  A    between atoms: _210  and  _213
REMARK   84  A    between atoms: _215  and  _217
REMARK   85  A    between atoms: _217  and  _218
REMARK   86  A    between atoms: _221  and  _223
REMARK   87  A    between atoms: _223  and  _224
REMARK   88  A    between atoms: _223  and  _226
REMARK   89  A    between atoms: _226  and  _227
REMARK   90  A    between atoms: _233  and  _235
REMARK   91  A    between atoms: _235  and  _236
REMARK   92  A    between atoms: _235  and  _238
REMARK   93  A    between atoms: _238  and  _239
REMARK   94  A    between atoms: _239  and  _240
REMARK   95  A    between atoms: _242  and  _244
REMARK   96  A    between atoms: _244  and  _245
REMARK   97  A    between atoms: _244  and  _247
REMARK   98  A    between atoms: _250  and  _252
REMARK   99  A    between atoms: _252  and  _253
REMARK  100  A    between atoms: _252  and  _255
REMARK  101  A    between atoms: _257  and  _259
REMARK  102  A    between atoms: _259  and  _260
REMARK  103  A    between atoms: _263  and  _265
REMARK  104  A    between atoms: _265  and  _266
REMARK  105  A    between atoms: _265  and  _268
REMARK  106  A    between atoms: _268  and  _269
REMARK  107  A    between atoms: _274  and  _275
REMARK  108  A    between atoms: _278  and  _279
REMARK  109  A    between atoms: _284  and  _286
REMARK  110  A    between atoms: _286  and  _287
REMARK  111  A    between atoms: _286  and  _289
REMARK  112  A    between atoms: _289  and  _290
REMARK  113  A    between atoms: _290  and  _291
REMARK  114  A    between atoms: _293  and  _295
REMARK  115  A    between atoms: _295  and  _296
REMARK  116  A    between atoms: _299  and  _301
REMARK  117  A    between atoms: _301  and  _302
REMARK  118  A    between atoms: _301  and  _304
REMARK  119  A    between atoms: _304  and  _305
REMARK  120  A    between atoms: _308  and  _310
REMARK  121  A    between atoms: _310  and  _311
REMARK  122  A    between atoms: _313  and  _315
REMARK  123  A    between atoms: _315  and  _316
REMARK  124  A    between atoms: _315  and  _318
REMARK  125  A    between atoms: _318  and  _319
REMARK  126  A    between atoms: _324  and  _326
REMARK  127  A    between atoms: _326  and  _327
REMARK  128  A    between atoms: _326  and  _329
REMARK  129  A    between atoms: _329  and  _330
REMARK  130  A    between atoms: _333  and  _335
REMARK  131  A    between atoms: _335  and  _336
REMARK  132  A    between atoms: _335  and  _338
REMARK  133  A    between atoms: _338  and  _339
REMARK  134  A    between atoms: _344  and  _345
REMARK  135  A    between atoms: _347  and  _349
REMARK  136  A    between atoms: _349  and  _350
REMARK  137  A    between atoms: _349  and  _352
REMARK  138  A    between atoms: _352  and  _353
REMARK  139  A    between atoms: _356  and  _358
REMARK  140  A    between atoms: _358  and  _359
REMARK  141  A    between atoms: _358  and  _361
REMARK  142  A    between atoms: _361  and  _362
REMARK  143  A    between atoms: _367  and  _368
REMARK  144  A    between atoms: _371  and  _372
REMARK  145  A    between atoms: _377  and  _379
REMARK  146  A    between atoms: _379  and  _380
REMARK  147  A    between atoms: _379  and  _382
REMARK  148  A    between atoms: _382  and  _383
REMARK  149  A    between atoms: _388  and  _389
REMARK  150  A    between atoms: _391  and  _393
REMARK  151  A    between atoms: _393  and  _394
REMARK  152  A    between atoms: _393  and  _396
REMARK  153  A    between atoms: _396  and  _397
REMARK  154  A    between atoms: _397  and  _398
REMARK  155  A    between atoms: _400  and  _402
REMARK  156  A    between atoms: _402  and  _403
REMARK  157  A    between atoms: _402  and  _405
REMARK  158  A    between atoms: _405  and  _406
REMARK  159  A    between atoms: _411  and  _412
REMARK  160  A    between atoms: _414  and  _416
REMARK  161  A    between atoms: _416  and  _417
REMARK  162  A    between atoms: _416  and  _419
REMARK  163  A    between atoms: _419  and  _420
REMARK  164  A    between atoms: _423  and  _425
REMARK  165  A    between atoms: _425  and  _426
REMARK  166  A    between atoms: _429  and  _431
REMARK  167  A    between atoms: _431  and  _432
REMARK  168  A    between atoms: _434  and  _436
REMARK  169  A    between atoms: _436  and  _437
REMARK  170  A    between atoms: _436  and  _439
REMARK  171  A    between atoms: _439  and  _440
REMARK  172  A    between atoms: _445  and  _446
REMARK  173  A    between atoms: _448  and  _450
REMARK  174  A    between atoms: _450  and  _451
REMARK  175  A    between atoms: _450  and  _453
REMARK  176  A    between atoms: _453  and  _454
REMARK  177  A    between atoms: _459  and  _461
REMARK  178  A    between atoms: _461  and  _462
REMARK  179  A    between atoms: _461  and  _464
REMARK  180  A    between atoms: _466  and  _468
REMARK  181  A    between atoms: _468  and  _469
REMARK  182  A    between atoms: _468  and  _471
REMARK  183  A    between atoms: _471  and  _472
REMARK  184  A    between atoms: _472  and  _473
REMARK  185  A    between atoms: _473  and  _474
REMARK  186  A    between atoms: _483  and  _485
REMARK  187  A    between atoms: _485  and  _486
REMARK  188  A    between atoms: _489  and  _491
REMARK  189  A    between atoms: _491  and  _492
REMARK  190  A    between atoms: _495  and  _497
REMARK  191  A    between atoms: _497  and  _498
REMARK  192  A    between atoms: _497  and  _500
REMARK  193  A    between atoms: _500  and  _501
REMARK  194  A    between atoms: _511  and  _513
REMARK  195  A    between atoms: _513  and  _514
REMARK  196  A    between atoms: _513  and  _516
REMARK  197  A    between atoms: _516  and  _517
REMARK  198  A    between atoms: _520  and  _522
REMARK  199  A    between atoms: _522  and  _523
REMARK  200  A    between atoms: _522  and  _525
REMARK  201  A    between atoms: _525  and  _526
REMARK  202  A    between atoms: _526  and  _527
REMARK  203  A    between atoms: _530  and  _532
REMARK  204  A    between atoms: _532  and  _533
REMARK  205  A    between atoms: _532  and  _535
REMARK  206  A    between atoms: _535  and  _536
REMARK  207  A    between atoms: _539  and  _541
REMARK  208  A    between atoms: _541  and  _542
REMARK  209  A    between atoms: _541  and  _544
REMARK  210  A    between atoms: _544  and  _545
REMARK  211  A    between atoms: _545  and  _546
REMARK  212  A    between atoms: _546  and  _547
REMARK  213  A    between atoms: _547  and  _548
REMARK  214  A    between atoms: _552  and  _554
REMARK  215  A    between atoms: _554  and  _555
REMARK  216  A    between atoms: _554  and  _557
REMARK  217  A    between atoms: _557  and  _558
REMARK  218  A    between atoms: _558  and  _559
REMARK  219  A    between atoms: _562  and  _564
REMARK  220  A    between atoms: _564  and  _565
REMARK  221  A    between atoms: _564  and  _567
REMARK  222  A    between atoms: _567  and  _568
REMARK  223  A    between atoms: _574  and  _576
REMARK  224  A    between atoms: _576  and  _577
REMARK  225  A    between atoms: _576  and  _579
REMARK  226  A    between atoms: _579  and  _580
REMARK  227  A    between atoms: _586  and  _588
REMARK  228  A    between atoms: _588  and  _589
REMARK  229  A    between atoms: _588  and  _591
REMARK  230  A    between atoms: _591  and  _592
REMARK  231  A    between atoms: _592  and  _593
REMARK  232  A    between atoms: _596  and  _598
REMARK  233  A    between atoms: _598  and  _599
REMARK  234  A    between atoms: _598  and  _601
REMARK  235  A    between atoms: _604  and  _606
REMARK  236  A    between atoms: _606  and  _607
REMARK  237  A    between atoms: _610  and  _612
REMARK  238  A    between atoms: _612  and  _613
REMARK  239  A    between atoms: _612  and  _615
REMARK  240  A    between atoms: _615  and  _616
REMARK  241  A    between atoms: _619  and  _621
REMARK  242  A    between atoms: _621  and  _622
REMARK  243  A    between atoms: _621  and  _624
REMARK  244  A    between atoms: _627  and  _629
REMARK  245  A    between atoms: _629  and  _630
REMARK  246  A    between atoms: _629  and  _632
REMARK  247  A    between atoms: _632  and  _633
REMARK                            x       y       z     vdW  Elec       q    Type
REMARK                         _______ _______ _______ _____ _____    ______ ____
ROOT
ATOM      1  O   HOH     1      17.078   2.794   5.363  0.00  0.00    +0.000 OA
ENDROOT
TORSDOF 0
REMARK  Name = ../refined-set-2016/4x5y/4x5y_pocket.pdb
REMARK  247 active torsions:
REMARK  status: ('A' for Active; 'I' for Inactive)
REMARK    1  A    between atoms: _1  and  _3
REMARK    2  A    between atoms: _3  and  _4
REMARK    3  A    between atoms: _3  and  _6
REMARK    4  A    between atoms: _6  and  _7
REMARK    5  A    between atoms: _10  and  _12
REMARK    6  A    between atoms: _12  and  _13
REMARK    7  A    between atoms: _12  and  _15
REMARK    8  A    between atoms: _15  and  _16
REMARK    9  A    between atoms: _18  and  _20
REMARK   10  A    between atoms: _20  and  _21
REMARK   11  A    between atoms: _20  and  _23
REMARK   12  A    between atoms: _23  and  _24
REMARK   13  A    between atoms: _26  and  _28
REMARK   14  A    between atoms: _28  and  _29
REMARK   15  A    between atoms: _31  and  _33
REMARK   16  A    between atoms: _33  and  _34
REMARK   17  A    between atoms: _37  and  _39
REMARK   18  A    between atoms: _39  and  _40
REMARK   19  A    between atoms: _39  and  _42
REMARK   20  A    between atoms: _42  and  _43
REMARK   21  A    between atoms: _49  and  _51
REMARK   22  A    between atoms: _51  and  _52
REMARK   23  A    between atoms: _51  and  _54
REMARK   24  A    between atoms: _54  and  _55
REMARK   25  A    between atoms: _58  and  _60
REMARK   26  A    between atoms: _60  and  _61
REMARK   27  A    between atoms: _64  and  _66
REMARK   28  A    between atoms: _66  and  _67
REMARK   29  A    between atoms: _66  and  _69
REMARK   30  A    between atoms: _69  and  _70
REMARK   31  A    between atoms: _73  and  _75
REMARK   32  A    between atoms: _75  and  _76
REMARK   33  A    between atoms: _75  and  _78
REMARK   34  A    between atoms: _78  and  _79
REMARK   35  A    between atoms: _81  and  _83
REMARK   36  A    between atoms: _83  and  _84
REMARK   37  A    between atoms: _83  and  _86
REMARK   38  A    between atoms: _86  and  _87
REMARK   39  A    between atoms: _87  and  _88
REMARK   40  A    between atoms: _91  and  _93
REMARK   41  A    between atoms: _93  and  _94
REMARK   42  A    between atoms: _93  and  _96
REMARK   43  A    between atoms: _96  and  _97
REMARK   44  A    between atoms: _100  and  _102
REMARK   45  A    between atoms: _102  and  _103
REMARK   46  A    between atoms: _102  and  _105
REMARK   47  A    between atoms: _105  and  _106
REMARK   48  A    between atoms: _111  and  _113
REMARK   49  A    between atoms: _113  and  _114
REMARK   50  A    between atoms: _117  and  _119
REMARK   51  A    between atoms: _119  and  _120
REMARK   52  A    between atoms: _119  and  _122
REMARK   53  A    between atoms: _122  and  _123
REMARK   54  A    between atoms: _133  and  _135
REMARK   55  A    between atoms: _135  and  _136
REMARK   56  A    between atoms: _135  and  _138
REMARK   57  A    between atoms: _138  and  _139
REMARK   58  A    between atoms: _142  and  _144
REMARK   59  A    between atoms: _144  and  _145
REMARK   60  A    between atoms: _144  and  _147
REMARK   61  A    between atoms: _147  and  _148
REMARK   62  A    between atoms: _158  and  _160
REMARK   63  A    between atoms: _160  and  _161
REMARK   64  A    between atoms: _160  and  _163
REMARK   65  A    between atoms: _163  and  _164
REMARK   66  A    between atoms: _169  and  _171
REMARK   67  A    between atoms: _171  and  _172
REMARK   68  A    between atoms: _174  and  _176
REMARK   69  A    between atoms: _176  and  _177
REMARK   70  A    between atoms: _176  and  _179
REMARK   71  A    between atoms: _179  and  _180
REMARK   72  A    between atoms: _190  and  _192
REMARK   73  A    between atoms: _192  and  _193
REMARK   74  A    between atoms: _192  and  _195
REMARK   75  A    between atoms: _195  and  _196
REMARK   76  A    between atoms: _199  and  _201
REMARK   77  A    between atoms: _201  and  _202
REMARK   78  A    between atoms: _201  and  _204
REMARK   79  A    between atoms: _204  and  _205
REMARK   80  A    between atoms: _205  and  _206
REMARK   81  A    between atoms: _208  and  _210
REMARK   82  A    between atoms: _210  and  _211
REMARK   83  A    between atoms: _210  and  _213
REMARK   84  A    between atoms: _215  and  _217
REMARK   85  A    between atoms: _217  and  _218
REMARK   86  A    between atoms: _221  and  _223
REMARK   87  A    between atoms: _223  and  _224
REMARK   88  A    between atoms: _223  and  _226
REMARK   89  A    between atoms: _226  and  _227
REMARK   90  A    between atoms: _233  and  _235
REMARK   91  A    between atoms: _235  and  _236
REMARK   92  A    between atoms: _235  and  _238
REMARK   93  A    between atoms: _238  and  _239
REMARK   94  A    between atoms: _239  and  _240
REMARK   95  A    between atoms: _242  and  _244
REMARK   96  A    between atoms: _244  and  _245
REMARK   97  A    between atoms: _244  and  _247
REMARK   98  A    between atoms: _250  and  _252
REMARK   99  A    between atoms: _252  and  _253
REMARK  100  A    between atoms: _252  and  _255
REMARK  101  A    between atoms: _257  and  _259
REMARK  102  A    between atoms: _259  and  _260
REMARK  103  A    between atoms: _263  and  _265
REMARK  104  A    between atoms: _265  and  _266
REMARK  105  A    between atoms: _265  and  _268
REMARK  106  A    between atoms: _268  and  _269
REMARK  107  A    between atoms: _274  and  _275
REMARK  108  A    between atoms: _278  and  _279
REMARK  109  A    between atoms: _284  and  _286
REMARK  110  A    between atoms: _286  and  _287
REMARK  111  A    between atoms: _286  and  _289
REMARK  112  A    between atoms: _289  and  _290
REMARK  113  A    between atoms: _290  and  _291
REMARK  114  A    between atoms: _293  and  _295
REMARK  115  A    between atoms: _295  and  _296
REMARK  116  A    between atoms: _299  and  _301
REMARK  117  A    between atoms: _301  and  _302
REMARK  118  A    between atoms: _301  and  _304
REMARK  119  A    between atoms: _304  and  _305
REMARK  120  A    between atoms: _308  and  _310
REMARK  121  A    between atoms: _310  and  _311
REMARK  122  A    between atoms: _313  and  _315
REMARK  123  A    between atoms: _315  and  _316
REMARK  124  A    between atoms: _315  and  _318
REMARK  125  A    between atoms: _318  and  _319
REMARK  126  A    between atoms: _324  and  _326
REMARK  127  A    between atoms: _326  and  _327
REMARK  128  A    between atoms: _326  and  _329
REMARK  129  A    between atoms: _329  and  _330
REMARK  130  A    between atoms: _333  and  _335
REMARK  131  A    between atoms: _335  and  _336
REMARK  132  A    between atoms: _335  and  _338
REMARK  133  A    between atoms: _338  and  _339
REMARK  134  A    between atoms: _344  and  _345
REMARK  135  A    between atoms: _347  and  _349
REMARK  136  A    between atoms: _349  and  _350
REMARK  137  A    between atoms: _349  and  _352
REMARK  138  A    between atoms: _352  and  _353
REMARK  139  A    between atoms: _356  and  _358
REMARK  140  A    between atoms: _358  and  _359
REMARK  141  A    between atoms: _358  and  _361
REMARK  142  A    between atoms: _361  and  _362
REMARK  143  A    between atoms: _367  and  _368
REMARK  144  A    between atoms: _371  and  _372
REMARK  145  A    between atoms: _377  and  _379
REMARK  146  A    between atoms: _379  and  _380
REMARK  147  A    between atoms: _379  and  _382
REMARK  148  A    between atoms: _382  and  _383
REMARK  149  A    between atoms: _388  and  _389
REMARK  150  A    between atoms: _391  and  _393
REMARK  151  A    between atoms: _393  and  _394
REMARK  152  A    between atoms: _393  and  _396
REMARK  153  A    between atoms: _396  and  _397
REMARK  154  A    between atoms: _397  and  _398
REMARK  155  A    between atoms: _400  and  _402
REMARK  156  A    between atoms: _402  and  _403
REMARK  157  A    between atoms: _402  and  _405
REMARK  158  A    between atoms: _405  and  _406
REMARK  159  A    between atoms: _411  and  _412
REMARK  160  A    between atoms: _414  and  _416
REMARK  161  A    between atoms: _416  and  _417
REMARK  162  A    between atoms: _416  and  _419
REMARK  163  A    between atoms: _419  and  _420
REMARK  164  A    between atoms: _423  and  _425
REMARK  165  A    between atoms: _425  and  _426
REMARK  166  A    between atoms: _429  and  _431
REMARK  167  A    between atoms: _431  and  _432
REMARK  168  A    between atoms: _434  and  _436
REMARK  169  A    between atoms: _436  and  _437
REMARK  170  A    between atoms: _436  and  _439
REMARK  171  A    between atoms: _439  and  _440
REMARK  172  A    between atoms: _445  and  _446
REMARK  173  A    between atoms: _448  and  _450
REMARK  174  A    between atoms: _450  and  _451
REMARK  175  A    between atoms: _450  and  _453
REMARK  176  A    between atoms: _453  and  _454
REMARK  177  A    between atoms: _459  and  _461
REMARK  178  A    between atoms: _461  and  _462
REMARK  179  A    between atoms: _461  and  _464
REMARK  180  A    between atoms: _466  and  _468
REMARK  181  A    between atoms: _468  and  _469
REMARK  182  A    between atoms: _468  and  _471
REMARK  183  A    between atoms: _471  and  _472
REMARK  184  A    between atoms: _472  and  _473
REMARK  185  A    between atoms: _473  and  _474
REMARK  186  A    between atoms: _483  and  _485
REMARK  187  A    between atoms: _485  and  _486
REMARK  188  A    between atoms: _489  and  _491
REMARK  189  A    between atoms: _491  and  _492
REMARK  190  A    between atoms: _495  and  _497
REMARK  191  A    between atoms: _497  and  _498
REMARK  192  A    between atoms: _497  and  _500
REMARK  193  A    between atoms: _500  and  _501
REMARK  194  A    between atoms: _511  and  _513
REMARK  195  A    between atoms: _513  and  _514
REMARK  196  A    between atoms: _513  and  _516
REMARK  197  A    between atoms: _516  and  _517
REMARK  198  A    between atoms: _520  and  _522
REMARK  199  A    between atoms: _522  and  _523
REMARK  200  A    between atoms: _522  and  _525
REMARK  201  A    between atoms: _525  and  _526
REMARK  202  A    between atoms: _526  and  _527
REMARK  203  A    between atoms: _530  and  _532
REMARK  204  A    between atoms: _532  and  _533
REMARK  205  A    between atoms: _532  and  _535
REMARK  206  A    between atoms: _535  and  _536
REMARK  207  A    between atoms: _539  and  _541
REMARK  208  A    between atoms: _541  and  _542
REMARK  209  A    between atoms: _541  and  _544
REMARK  210  A    between atoms: _544  and  _545
REMARK  211  A    between atoms: _545  and  _546
REMARK  212  A    between atoms: _546  and  _547
REMARK  213  A    between atoms: _547  and  _548
REMARK  214  A    between atoms: _552  and  _554
REMARK  215  A    between atoms: _554  and  _555
REMARK  216  A    between atoms: _554  and  _557
REMARK  217  A    between atoms: _557  and  _558
REMARK  218  A    between atoms: _558  and  _559
REMARK  219  A    between atoms: _562  and  _564
REMARK  220  A    between atoms: _564  and  _565
REMARK  221  A    between atoms: _564  and  _567
REMARK  222  A    between atoms: _567  and  _568
REMARK  223  A    between atoms: _574  and  _576
REMARK  224  A    between atoms: _576  and  _577
REMARK  225  A    between atoms: _576  and  _579
REMARK  226  A    between atoms: _579  and  _580
REMARK  227  A    between atoms: _586  and  _588
REMARK  228  A    between atoms: _588  and  _589
REMARK  229  A    between atoms: _588  and  _591
REMARK  230  A    between atoms: _591  and  _592
REMARK  231  A    between atoms: _592  and  _593
REMARK  232  A    between atoms: _596  and  _598
REMARK  233  A    between atoms: _598  and  _599
REMARK  234  A    between atoms: _598  and  _601
REMARK  235  A    between atoms: _604  and  _606
REMARK  236  A    between atoms: _606  and  _607
REMARK  237  A    between atoms: _610  and  _612
REMARK  238  A    between atoms: _612  and  _613
REMARK  239  A    between atoms: _612  and  _615
REMARK  240  A    between atoms: _615  and  _616
REMARK  241  A    between atoms: _619  and  _621
REMARK  242  A    between atoms: _621  and  _622
REMARK  243  A    between atoms: _621  and  _624
REMARK  244  A    between atoms: _627  and  _629
REMARK  245  A    between atoms: _629  and  _630
REMARK  246  A    between atoms: _629  and  _632
REMARK  247  A    between atoms: _632  and  _633
REMARK                            x       y       z     vdW  Elec       q    Type
REMARK                         _______ _______ _______ _____ _____    ______ ____
ROOT
ATOM      1  O   HOH     1      20.211   8.686   8.055  0.00  0.00    +0.000 OA
ENDROOT
TORSDOF 0
REMARK  Name = ../refined-set-2016/4x5y/4x5y_pocket.pdb
REMARK  247 active torsions:
REMARK  status: ('A' for Active; 'I' for Inactive)
REMARK    1  A    between atoms: _1  and  _3
REMARK    2  A    between atoms: _3  and  _4
REMARK    3  A    between atoms: _3  and  _6
REMARK    4  A    between atoms: _6  and  _7
REMARK    5  A    between atoms: _10  and  _12
REMARK    6  A    between atoms: _12  and  _13
REMARK    7  A    between atoms: _12  and  _15
REMARK    8  A    between atoms: _15  and  _16
REMARK    9  A    between atoms: _18  and  _20
REMARK   10  A    between atoms: _20  and  _21
REMARK   11  A    between atoms: _20  and  _23
REMARK   12  A    between atoms: _23  and  _24
REMARK   13  A    between atoms: _26  and  _28
REMARK   14  A    between atoms: _28  and  _29
REMARK   15  A    between atoms: _31  and  _33
REMARK   16  A    between atoms: _33  and  _34
REMARK   17  A    between atoms: _37  and  _39
REMARK   18  A    between atoms: _39  and  _40
REMARK   19  A    between atoms: _39  and  _42
REMARK   20  A    between atoms: _42  and  _43
REMARK   21  A    between atoms: _49  and  _51
REMARK   22  A    between atoms: _51  and  _52
REMARK   23  A    between atoms: _51  and  _54
REMARK   24  A    between atoms: _54  and  _55
REMARK   25  A    between atoms: _58  and  _60
REMARK   26  A    between atoms: _60  and  _61
REMARK   27  A    between atoms: _64  and  _66
REMARK   28  A    between atoms: _66  and  _67
REMARK   29  A    between atoms: _66  and  _69
REMARK   30  A    between atoms: _69  and  _70
REMARK   31  A    between atoms: _73  and  _75
REMARK   32  A    between atoms: _75  and  _76
REMARK   33  A    between atoms: _75  and  _78
REMARK   34  A    between atoms: _78  and  _79
REMARK   35  A    between atoms: _81  and  _83
REMARK   36  A    between atoms: _83  and  _84
REMARK   37  A    between atoms: _83  and  _86
REMARK   38  A    between atoms: _86  and  _87
REMARK   39  A    between atoms: _87  and  _88
REMARK   40  A    between atoms: _91  and  _93
REMARK   41  A    between atoms: _93  and  _94
REMARK   42  A    between atoms: _93  and  _96
REMARK   43  A    between atoms: _96  and  _97
REMARK   44  A    between atoms: _100  and  _102
REMARK   45  A    between atoms: _102  and  _103
REMARK   46  A    between atoms: _102  and  _105
REMARK   47  A    between atoms: _105  and  _106
REMARK   48  A    between atoms: _111  and  _113
REMARK   49  A    between atoms: _113  and  _114
REMARK   50  A    between atoms: _117  and  _119
REMARK   51  A    between atoms: _119  and  _120
REMARK   52  A    between atoms: _119  and  _122
REMARK   53  A    between atoms: _122  and  _123
REMARK   54  A    between atoms: _133  and  _135
REMARK   55  A    between atoms: _135  and  _136
REMARK   56  A    between atoms: _135  and  _138
REMARK   57  A    between atoms: _138  and  _139
REMARK   58  A    between atoms: _142  and  _144
REMARK   59  A    between atoms: _144  and  _145
REMARK   60  A    between atoms: _144  and  _147
REMARK   61  A    between atoms: _147  and  _148
REMARK   62  A    between atoms: _158  and  _160
REMARK   63  A    between atoms: _160  and  _161
REMARK   64  A    between atoms: _160  and  _163
REMARK   65  A    between atoms: _163  and  _164
REMARK   66  A    between atoms: _169  and  _171
REMARK   67  A    between atoms: _171  and  _172
REMARK   68  A    between atoms: _174  and  _176
REMARK   69  A    between atoms: _176  and  _177
REMARK   70  A    between atoms: _176  and  _179
REMARK   71  A    between atoms: _179  and  _180
REMARK   72  A    between atoms: _190  and  _192
REMARK   73  A    between atoms: _192  and  _193
REMARK   74  A    between atoms: _192  and  _195
REMARK   75  A    between atoms: _195  and  _196
REMARK   76  A    between atoms: _199  and  _201
REMARK   77  A    between atoms: _201  and  _202
REMARK   78  A    between atoms: _201  and  _204
REMARK   79  A    between atoms: _204  and  _205
REMARK   80  A    between atoms: _205  and  _206
REMARK   81  A    between atoms: _208  and  _210
REMARK   82  A    between atoms: _210  and  _211
REMARK   83  A    between atoms: _210  and  _213
REMARK   84  A    between atoms: _215  and  _217
REMARK   85  A    between atoms: _217  and  _218
REMARK   86  A    between atoms: _221  and  _223
REMARK   87  A    between atoms: _223  and  _224
REMARK   88  A    between atoms: _223  and  _226
REMARK   89  A    between atoms: _226  and  _227
REMARK   90  A    between atoms: _233  and  _235
REMARK   91  A    between atoms: _235  and  _236
REMARK   92  A    between atoms: _235  and  _238
REMARK   93  A    between atoms: _238  and  _239
REMARK   94  A    between atoms: _239  and  _240
REMARK   95  A    between atoms: _242  and  _244
REMARK   96  A    between atoms: _244  and  _245
REMARK   97  A    between atoms: _244  and  _247
REMARK   98  A    between atoms: _250  and  _252
REMARK   99  A    between atoms: _252  and  _253
REMARK  100  A    between atoms: _252  and  _255
REMARK  101  A    between atoms: _257  and  _259
REMARK  102  A    between atoms: _259  and  _260
REMARK  103  A    between atoms: _263  and  _265
REMARK  104  A    between atoms: _265  and  _266
REMARK  105  A    between atoms: _265  and  _268
REMARK  106  A    between atoms: _268  and  _269
REMARK  107  A    between atoms: _274  and  _275
REMARK  108  A    between atoms: _278  and  _279
REMARK  109  A    between atoms: _284  and  _286
REMARK  110  A    between atoms: _286  and  _287
REMARK  111  A    between atoms: _286  and  _289
REMARK  112  A    between atoms: _289  and  _290
REMARK  113  A    between atoms: _290  and  _291
REMARK  114  A    between atoms: _293  and  _295
REMARK  115  A    between atoms: _295  and  _296
REMARK  116  A    between atoms: _299  and  _301
REMARK  117  A    between atoms: _301  and  _302
REMARK  118  A    between atoms: _301  and  _304
REMARK  119  A    between atoms: _304  and  _305
REMARK  120  A    between atoms: _308  and  _310
REMARK  121  A    between atoms: _310  and  _311
REMARK  122  A    between atoms: _313  and  _315
REMARK  123  A    between atoms: _315  and  _316
REMARK  124  A    between atoms: _315  and  _318
REMARK  125  A    between atoms: _318  and  _319
REMARK  126  A    between atoms: _324  and  _326
REMARK  127  A    between atoms: _326  and  _327
REMARK  128  A    between atoms: _326  and  _329
REMARK  129  A    between atoms: _329  and  _330
REMARK  130  A    between atoms: _333  and  _335
REMARK  131  A    between atoms: _335  and  _336
REMARK  132  A    between atoms: _335  and  _338
REMARK  133  A    between atoms: _338  and  _339
REMARK  134  A    between atoms: _344  and  _345
REMARK  135  A    between atoms: _347  and  _349
REMARK  136  A    between atoms: _349  and  _350
REMARK  137  A    between atoms: _349  and  _352
REMARK  138  A    between atoms: _352  and  _353
REMARK  139  A    between atoms: _356  and  _358
REMARK  140  A    between atoms: _358  and  _359
REMARK  141  A    between atoms: _358  and  _361
REMARK  142  A    between atoms: _361  and  _362
REMARK  143  A    between atoms: _367  and  _368
REMARK  144  A    between atoms: _371  and  _372
REMARK  145  A    between atoms: _377  and  _379
REMARK  146  A    between atoms: _379  and  _380
REMARK  147  A    between atoms: _379  and  _382
REMARK  148  A    between atoms: _382  and  _383
REMARK  149  A    between atoms: _388  and  _389
REMARK  150  A    between atoms: _391  and  _393
REMARK  151  A    between atoms: _393  and  _394
REMARK  152  A    between atoms: _393  and  _396
REMARK  153  A    between atoms: _396  and  _397
REMARK  154  A    between atoms: _397  and  _398
REMARK  155  A    between atoms: _400  and  _402
REMARK  156  A    between atoms: _402  and  _403
REMARK  157  A    between atoms: _402  and  _405
REMARK  158  A    between atoms: _405  and  _406
REMARK  159  A    between atoms: _411  and  _412
REMARK  160  A    between atoms: _414  and  _416
REMARK  161  A    between atoms: _416  and  _417
REMARK  162  A    between atoms: _416  and  _419
REMARK  163  A    between atoms: _419  and  _420
REMARK  164  A    between atoms: _423  and  _425
REMARK  165  A    between atoms: _425  and  _426
REMARK  166  A    between atoms: _429  and  _431
REMARK  167  A    between atoms: _431  and  _432
REMARK  168  A    between atoms: _434  and  _436
REMARK  169  A    between atoms: _436  and  _437
REMARK  170  A    between atoms: _436  and  _439
REMARK  171  A    between atoms: _439  and  _440
REMARK  172  A    between atoms: _445  and  _446
REMARK  173  A    between atoms: _448  and  _450
REMARK  174  A    between atoms: _450  and  _451
REMARK  175  A    between atoms: _450  and  _453
REMARK  176  A    between atoms: _453  and  _454
REMARK  177  A    between atoms: _459  and  _461
REMARK  178  A    between atoms: _461  and  _462
REMARK  179  A    between atoms: _461  and  _464
REMARK  180  A    between atoms: _466  and  _468
REMARK  181  A    between atoms: _468  and  _469
REMARK  182  A    between atoms: _468  and  _471
REMARK  183  A    between atoms: _471  and  _472
REMARK  184  A    between atoms: _472  and  _473
REMARK  185  A    between atoms: _473  and  _474
REMARK  186  A    between atoms: _483  and  _485
REMARK  187  A    between atoms: _485  and  _486
REMARK  188  A    between atoms: _489  and  _491
REMARK  189  A    between atoms: _491  and  _492
REMARK  190  A    between atoms: _495  and  _497
REMARK  191  A    between atoms: _497  and  _498
REMARK  192  A    between atoms: _497  and  _500
REMARK  193  A    between atoms: _500  and  _501
REMARK  194  A    between atoms: _511  and  _513
REMARK  195  A    between atoms: _513  and  _514
REMARK  196  A    between atoms: _513  and  _516
REMARK  197  A    between atoms: _516  and  _517
REMARK  198  A    between atoms: _520  and  _522
REMARK  199  A    between atoms: _522  and  _523
REMARK  200  A    between atoms: _522  and  _525
REMARK  201  A    between atoms: _525  and  _526
REMARK  202  A    between atoms: _526  and  _527
REMARK  203  A    between atoms: _530  and  _532
REMARK  204  A    between atoms: _532  and  _533
REMARK  205  A    between atoms: _532  and  _535
REMARK  206  A    between atoms: _535  and  _536
REMARK  207  A    between atoms: _539  and  _541
REMARK  208  A    between atoms: _541  and  _542
REMARK  209  A    between atoms: _541  and  _544
REMARK  210  A    between atoms: _544  and  _545
REMARK  211  A    between atoms: _545  and  _546
REMARK  212  A    between atoms: _546  and  _547
REMARK  213  A    between atoms: _547  and  _548
REMARK  214  A    between atoms: _552  and  _554
REMARK  215  A    between atoms: _554  and  _555
REMARK  216  A    between atoms: _554  and  _557
REMARK  217  A    between atoms: _557  and  _558
REMARK  218  A    between atoms: _558  and  _559
REMARK  219  A    between atoms: _562  and  _564
REMARK  220  A    between atoms: _564  and  _565
REMARK  221  A    between atoms: _564  and  _567
REMARK  222  A    between atoms: _567  and  _568
REMARK  223  A    between atoms: _574  and  _576
REMARK  224  A    between atoms: _576  and  _577
REMARK  225  A    between atoms: _576  and  _579
REMARK  226  A    between atoms: _579  and  _580
REMARK  227  A    between atoms: _586  and  _588
REMARK  228  A    between atoms: _588  and  _589
REMARK  229  A    between atoms: _588  and  _591
REMARK  230  A    between atoms: _591  and  _592
REMARK  231  A    between atoms: _592  and  _593
REMARK  232  A    between atoms: _596  and  _598
REMARK  233  A    between atoms: _598  and  _599
REMARK  234  A    between atoms: _598  and  _601
REMARK  235  A    between atoms: _604  and  _606
REMARK  236  A    between atoms: _606  and  _607
REMARK  237  A    between atoms: _610  and  _612
REMARK  238  A    between atoms: _612  and  _613
REMARK  239  A    between atoms: _612  and  _615
REMARK  240  A    between atoms: _615  and  _616
REMARK  241  A    between atoms: _619  and  _621
REMARK  242  A    between atoms: _621  and  _622
REMARK  243  A    between atoms: _621  and  _624
REMARK  244  A    between atoms: _627  and  _629
REMARK  245  A    between atoms: _629  and  _630
REMARK  246  A    between atoms: _629  and  _632
REMARK  247  A    between atoms: _632  and  _633
REMARK                            x       y       z     vdW  Elec       q    Type
REMARK                         _______ _______ _______ _____ _____    ______ ____
ROOT
ATOM      1  O   HOH     1      22.962   8.529  11.825  0.00  0.00    +0.000 OA
ENDROOT
TORSDOF 0
REMARK  Name = ../refined-set-2016/4x5y/4x5y_pocket.pdb
REMARK  247 active torsions:
REMARK  status: ('A' for Active; 'I' for Inactive)
REMARK    1  A    between atoms: _1  and  _3
REMARK    2  A    between atoms: _3  and  _4
REMARK    3  A    between atoms: _3  and  _6
REMARK    4  A    between atoms: _6  and  _7
REMARK    5  A    between atoms: _10  and  _12
REMARK    6  A    between atoms: _12  and  _13
REMARK    7  A    between atoms: _12  and  _15
REMARK    8  A    between atoms: _15  and  _16
REMARK    9  A    between atoms: _18  and  _20
REMARK   10  A    between atoms: _20  and  _21
REMARK   11  A    between atoms: _20  and  _23
REMARK   12  A    between atoms: _23  and  _24
REMARK   13  A    between atoms: _26  and  _28
REMARK   14  A    between atoms: _28  and  _29
REMARK   15  A    between atoms: _31  and  _33
REMARK   16  A    between atoms: _33  and  _34
REMARK   17  A    between atoms: _37  and  _39
REMARK   18  A    between atoms: _39  and  _40
REMARK   19  A    between atoms: _39  and  _42
REMARK   20  A    between atoms: _42  and  _43
REMARK   21  A    between atoms: _49  and  _51
REMARK   22  A    between atoms: _51  and  _52
REMARK   23  A    between atoms: _51  and  _54
REMARK   24  A    between atoms: _54  and  _55
REMARK   25  A    between atoms: _58  and  _60
REMARK   26  A    between atoms: _60  and  _61
REMARK   27  A    between atoms: _64  and  _66
REMARK   28  A    between atoms: _66  and  _67
REMARK   29  A    between atoms: _66  and  _69
REMARK   30  A    between atoms: _69  and  _70
REMARK   31  A    between atoms: _73  and  _75
REMARK   32  A    between atoms: _75  and  _76
REMARK   33  A    between atoms: _75  and  _78
REMARK   34  A    between atoms: _78  and  _79
REMARK   35  A    between atoms: _81  and  _83
REMARK   36  A    between atoms: _83  and  _84
REMARK   37  A    between atoms: _83  and  _86
REMARK   38  A    between atoms: _86  and  _87
REMARK   39  A    between atoms: _87  and  _88
REMARK   40  A    between atoms: _91  and  _93
REMARK   41  A    between atoms: _93  and  _94
REMARK   42  A    between atoms: _93  and  _96
REMARK   43  A    between atoms: _96  and  _97
REMARK   44  A    between atoms: _100  and  _102
REMARK   45  A    between atoms: _102  and  _103
REMARK   46  A    between atoms: _102  and  _105
REMARK   47  A    between atoms: _105  and  _106
REMARK   48  A    between atoms: _111  and  _113
REMARK   49  A    between atoms: _113  and  _114
REMARK   50  A    between atoms: _117  and  _119
REMARK   51  A    between atoms: _119  and  _120
REMARK   52  A    between atoms: _119  and  _122
REMARK   53  A    between atoms: _122  and  _123
REMARK   54  A    between atoms: _133  and  _135
REMARK   55  A    between atoms: _135  and  _136
REMARK   56  A    between atoms: _135  and  _138
REMARK   57  A    between atoms: _138  and  _139
REMARK   58  A    between atoms: _142  and  _144
REMARK   59  A    between atoms: _144  and  _145
REMARK   60  A    between atoms: _144  and  _147
REMARK   61  A    between atoms: _147  and  _148
REMARK   62  A    between atoms: _158  and  _160
REMARK   63  A    between atoms: _160  and  _161
REMARK   64  A    between atoms: _160  and  _163
REMARK   65  A    between atoms: _163  and  _164
REMARK   66  A    between atoms: _169  and  _171
REMARK   67  A    between atoms: _171  and  _172
REMARK   68  A    between atoms: _174  and  _176
REMARK   69  A    between atoms: _176  and  _177
REMARK   70  A    between atoms: _176  and  _179
REMARK   71  A    between atoms: _179  and  _180
REMARK   72  A    between atoms: _190  and  _192
REMARK   73  A    between atoms: _192  and  _193
REMARK   74  A    between atoms: _192  and  _195
REMARK   75  A    between atoms: _195  and  _196
REMARK   76  A    between atoms: _199  and  _201
REMARK   77  A    between atoms: _201  and  _202
REMARK   78  A    between atoms: _201  and  _204
REMARK   79  A    between atoms: _204  and  _205
REMARK   80  A    between atoms: _205  and  _206
REMARK   81  A    between atoms: _208  and  _210
REMARK   82  A    between atoms: _210  and  _211
REMARK   83  A    between atoms: _210  and  _213
REMARK   84  A    between atoms: _215  and  _217
REMARK   85  A    between atoms: _217  and  _218
REMARK   86  A    between atoms: _221  and  _223
REMARK   87  A    between atoms: _223  and  _224
REMARK   88  A    between atoms: _223  and  _226
REMARK   89  A    between atoms: _226  and  _227
REMARK   90  A    between atoms: _233  and  _235
REMARK   91  A    between atoms: _235  and  _236
REMARK   92  A    between atoms: _235  and  _238
REMARK   93  A    between atoms: _238  and  _239
REMARK   94  A    between atoms: _239  and  _240
REMARK   95  A    between atoms: _242  and  _244
REMARK   96  A    between atoms: _244  and  _245
REMARK   97  A    between atoms: _244  and  _247
REMARK   98  A    between atoms: _250  and  _252
REMARK   99  A    between atoms: _252  and  _253
REMARK  100  A    between atoms: _252  and  _255
REMARK  101  A    between atoms: _257  and  _259
REMARK  102  A    between atoms: _259  and  _260
REMARK  103  A    between atoms: _263  and  _265
REMARK  104  A    between atoms: _265  and  _266
REMARK  105  A    between atoms: _265  and  _268
REMARK  106  A    between atoms: _268  and  _269
REMARK  107  A    between atoms: _274  and  _275
REMARK  108  A    between atoms: _278  and  _279
REMARK  109  A    between atoms: _284  and  _286
REMARK  110  A    between atoms: _286  and  _287
REMARK  111  A    between atoms: _286  and  _289
REMARK  112  A    between atoms: _289  and  _290
REMARK  113  A    between atoms: _290  and  _291
REMARK  114  A    between atoms: _293  and  _295
REMARK  115  A    between atoms: _295  and  _296
REMARK  116  A    between atoms: _299  and  _301
REMARK  117  A    between atoms: _301  and  _302
REMARK  118  A    between atoms: _301  and  _304
REMARK  119  A    between atoms: _304  and  _305
REMARK  120  A    between atoms: _308  and  _310
REMARK  121  A    between atoms: _310  and  _311
REMARK  122  A    between atoms: _313  and  _315
REMARK  123  A    between atoms: _315  and  _316
REMARK  124  A    between atoms: _315  and  _318
REMARK  125  A    between atoms: _318  and  _319
REMARK  126  A    between atoms: _324  and  _326
REMARK  127  A    between atoms: _326  and  _327
REMARK  128  A    between atoms: _326  and  _329
REMARK  129  A    between atoms: _329  and  _330
REMARK  130  A    between atoms: _333  and  _335
REMARK  131  A    between atoms: _335  and  _336
REMARK  132  A    between atoms: _335  and  _338
REMARK  133  A    between atoms: _338  and  _339
REMARK  134  A    between atoms: _344  and  _345
REMARK  135  A    between atoms: _347  and  _349
REMARK  136  A    between atoms: _349  and  _350
REMARK  137  A    between atoms: _349  and  _352
REMARK  138  A    between atoms: _352  and  _353
REMARK  139  A    between atoms: _356  and  _358
REMARK  140  A    between atoms: _358  and  _359
REMARK  141  A    between atoms: _358  and  _361
REMARK  142  A    between atoms: _361  and  _362
REMARK  143  A    between atoms: _367  and  _368
REMARK  144  A    between atoms: _371  and  _372
REMARK  145  A    between atoms: _377  and  _379
REMARK  146  A    between atoms: _379  and  _380
REMARK  147  A    between atoms: _379  and  _382
REMARK  148  A    between atoms: _382  and  _383
REMARK  149  A    between atoms: _388  and  _389
REMARK  150  A    between atoms: _391  and  _393
REMARK  151  A    between atoms: _393  and  _394
REMARK  152  A    between atoms: _393  and  _396
REMARK  153  A    between atoms: _396  and  _397
REMARK  154  A    between atoms: _397  and  _398
REMARK  155  A    between atoms: _400  and  _402
REMARK  156  A    between atoms: _402  and  _403
REMARK  157  A    between atoms: _402  and  _405
REMARK  158  A    between atoms: _405  and  _406
REMARK  159  A    between atoms: _411  and  _412
REMARK  160  A    between atoms: _414  and  _416
REMARK  161  A    between atoms: _416  and  _417
REMARK  162  A    between atoms: _416  and  _419
REMARK  163  A    between atoms: _419  and  _420
REMARK  164  A    between atoms: _423  and  _425
REMARK  165  A    between atoms: _425  and  _426
REMARK  166  A    between atoms: _429  and  _431
REMARK  167  A    between atoms: _431  and  _432
REMARK  168  A    between atoms: _434  and  _436
REMARK  169  A    between atoms: _436  and  _437
REMARK  170  A    between atoms: _436  and  _439
REMARK  171  A    between atoms: _439  and  _440
REMARK  172  A    between atoms: _445  and  _446
REMARK  173  A    between atoms: _448  and  _450
REMARK  174  A    between atoms: _450  and  _451
REMARK  175  A    between atoms: _450  and  _453
REMARK  176  A    between atoms: _453  and  _454
REMARK  177  A    between atoms: _459  and  _461
REMARK  178  A    between atoms: _461  and  _462
REMARK  179  A    between atoms: _461  and  _464
REMARK  180  A    between atoms: _466  and  _468
REMARK  181  A    between atoms: _468  and  _469
REMARK  182  A    between atoms: _468  and  _471
REMARK  183  A    between atoms: _471  and  _472
REMARK  184  A    between atoms: _472  and  _473
REMARK  185  A    between atoms: _473  and  _474
REMARK  186  A    between atoms: _483  and  _485
REMARK  187  A    between atoms: _485  and  _486
REMARK  188  A    between atoms: _489  and  _491
REMARK  189  A    between atoms: _491  and  _492
REMARK  190  A    between atoms: _495  and  _497
REMARK  191  A    between atoms: _497  and  _498
REMARK  192  A    between atoms: _497  and  _500
REMARK  193  A    between atoms: _500  and  _501
REMARK  194  A    between atoms: _511  and  _513
REMARK  195  A    between atoms: _513  and  _514
REMARK  196  A    between atoms: _513  and  _516
REMARK  197  A    between atoms: _516  and  _517
REMARK  198  A    between atoms: _520  and  _522
REMARK  199  A    between atoms: _522  and  _523
REMARK  200  A    between atoms: _522  and  _525
REMARK  201  A    between atoms: _525  and  _526
REMARK  202  A    between atoms: _526  and  _527
REMARK  203  A    between atoms: _530  and  _532
REMARK  204  A    between atoms: _532  and  _533
REMARK  205  A    between atoms: _532  and  _535
REMARK  206  A    between atoms: _535  and  _536
REMARK  207  A    between atoms: _539  and  _541
REMARK  208  A    between atoms: _541  and  _542
REMARK  209  A    between atoms: _541  and  _544
REMARK  210  A    between atoms: _544  and  _545
REMARK  211  A    between atoms: _545  and  _546
REMARK  212  A    between atoms: _546  and  _547
REMARK  213  A    between atoms: _547  and  _548
REMARK  214  A    between atoms: _552  and  _554
REMARK  215  A    between atoms: _554  and  _555
REMARK  216  A    between atoms: _554  and  _557
REMARK  217  A    between atoms: _557  and  _558
REMARK  218  A    between atoms: _558  and  _559
REMARK  219  A    between atoms: _562  and  _564
REMARK  220  A    between atoms: _564  and  _565
REMARK  221  A    between atoms: _564  and  _567
REMARK  222  A    between atoms: _567  and  _568
REMARK  223  A    between atoms: _574  and  _576
REMARK  224  A    between atoms: _576  and  _577
REMARK  225  A    between atoms: _576  and  _579
REMARK  226  A    between atoms: _579  and  _580
REMARK  227  A    between atoms: _586  and  _588
REMARK  228  A    between atoms: _588  and  _589
REMARK  229  A    between atoms: _588  and  _591
REMARK  230  A    between atoms: _591  and  _592
REMARK  231  A    between atoms: _592  and  _593
REMARK  232  A    between atoms: _596  and  _598
REMARK  233  A    between atoms: _598  and  _599
REMARK  234  A    between atoms: _598  and  _601
REMARK  235  A    between atoms: _604  and  _606
REMARK  236  A    between atoms: _606  and  _607
REMARK  237  A    between atoms: _610  and  _612
REMARK  238  A    between atoms: _612  and  _613
REMARK  239  A    between atoms: _612  and  _615
REMARK  240  A    between atoms: _615  and  _616
REMARK  241  A    between atoms: _619  and  _621
REMARK  242  A    between atoms: _621  and  _622
REMARK  243  A    between atoms: _621  and  _624
REMARK  244  A    between atoms: _627  and  _629
REMARK  245  A    between atoms: _629  and  _630
REMARK  246  A    between atoms: _629  and  _632
REMARK  247  A    between atoms: _632  and  _633
REMARK                            x       y       z     vdW  Elec       q    Type
REMARK                         _______ _______ _______ _____ _____    ______ ____
ROOT
ATOM      1  O   HOH     1      18.543  11.284  11.535  0.00  0.00    +0.000 OA
ENDROOT
TORSDOF 0
REMARK  Name = ../refined-set-2016/4x5y/4x5y_pocket.pdb
REMARK  247 active torsions:
REMARK  status: ('A' for Active; 'I' for Inactive)
REMARK    1  A    between atoms: _1  and  _3
REMARK    2  A    between atoms: _3  and  _4
REMARK    3  A    between atoms: _3  and  _6
REMARK    4  A    between atoms: _6  and  _7
REMARK    5  A    between atoms: _10  and  _12
REMARK    6  A    between atoms: _12  and  _13
REMARK    7  A    between atoms: _12  and  _15
REMARK    8  A    between atoms: _15  and  _16
REMARK    9  A    between atoms: _18  and  _20
REMARK   10  A    between atoms: _20  and  _21
REMARK   11  A    between atoms: _20  and  _23
REMARK   12  A    between atoms: _23  and  _24
REMARK   13  A    between atoms: _26  and  _28
REMARK   14  A    between atoms: _28  and  _29
REMARK   15  A    between atoms: _31  and  _33
REMARK   16  A    between atoms: _33  and  _34
REMARK   17  A    between atoms: _37  and  _39
REMARK   18  A    between atoms: _39  and  _40
REMARK   19  A    between atoms: _39  and  _42
REMARK   20  A    between atoms: _42  and  _43
REMARK   21  A    between atoms: _49  and  _51
REMARK   22  A    between atoms: _51  and  _52
REMARK   23  A    between atoms: _51  and  _54
REMARK   24  A    between atoms: _54  and  _55
REMARK   25  A    between atoms: _58  and  _60
REMARK   26  A    between atoms: _60  and  _61
REMARK   27  A    between atoms: _64  and  _66
REMARK   28  A    between atoms: _66  and  _67
REMARK   29  A    between atoms: _66  and  _69
REMARK   30  A    between atoms: _69  and  _70
REMARK   31  A    between atoms: _73  and  _75
REMARK   32  A    between atoms: _75  and  _76
REMARK   33  A    between atoms: _75  and  _78
REMARK   34  A    between atoms: _78  and  _79
REMARK   35  A    between atoms: _81  and  _83
REMARK   36  A    between atoms: _83  and  _84
REMARK   37  A    between atoms: _83  and  _86
REMARK   38  A    between atoms: _86  and  _87
REMARK   39  A    between atoms: _87  and  _88
REMARK   40  A    between atoms: _91  and  _93
REMARK   41  A    between atoms: _93  and  _94
REMARK   42  A    between atoms: _93  and  _96
REMARK   43  A    between atoms: _96  and  _97
REMARK   44  A    between atoms: _100  and  _102
REMARK   45  A    between atoms: _102  and  _103
REMARK   46  A    between atoms: _102  and  _105
REMARK   47  A    between atoms: _105  and  _106
REMARK   48  A    between atoms: _111  and  _113
REMARK   49  A    between atoms: _113  and  _114
REMARK   50  A    between atoms: _117  and  _119
REMARK   51  A    between atoms: _119  and  _120
REMARK   52  A    between atoms: _119  and  _122
REMARK   53  A    between atoms: _122  and  _123
REMARK   54  A    between atoms: _133  and  _135
REMARK   55  A    between atoms: _135  and  _136
REMARK   56  A    between atoms: _135  and  _138
REMARK   57  A    between atoms: _138  and  _139
REMARK   58  A    between atoms: _142  and  _144
REMARK   59  A    between atoms: _144  and  _145
REMARK   60  A    between atoms: _144  and  _147
REMARK   61  A    between atoms: _147  and  _148
REMARK   62  A    between atoms: _158  and  _160
REMARK   63  A    between atoms: _160  and  _161
REMARK   64  A    between atoms: _160  and  _163
REMARK   65  A    between atoms: _163  and  _164
REMARK   66  A    between atoms: _169  and  _171
REMARK   67  A    between atoms: _171  and  _172
REMARK   68  A    between atoms: _174  and  _176
REMARK   69  A    between atoms: _176  and  _177
REMARK   70  A    between atoms: _176  and  _179
REMARK   71  A    between atoms: _179  and  _180
REMARK   72  A    between atoms: _190  and  _192
REMARK   73  A    between atoms: _192  and  _193
REMARK   74  A    between atoms: _192  and  _195
REMARK   75  A    between atoms: _195  and  _196
REMARK   76  A    between atoms: _199  and  _201
REMARK   77  A    between atoms: _201  and  _202
REMARK   78  A    between atoms: _201  and  _204
REMARK   79  A    between atoms: _204  and  _205
REMARK   80  A    between atoms: _205  and  _206
REMARK   81  A    between atoms: _208  and  _210
REMARK   82  A    between atoms: _210  and  _211
REMARK   83  A    between atoms: _210  and  _213
REMARK   84  A    between atoms: _215  and  _217
REMARK   85  A    between atoms: _217  and  _218
REMARK   86  A    between atoms: _221  and  _223
REMARK   87  A    between atoms: _223  and  _224
REMARK   88  A    between atoms: _223  and  _226
REMARK   89  A    between atoms: _226  and  _227
REMARK   90  A    between atoms: _233  and  _235
REMARK   91  A    between atoms: _235  and  _236
REMARK   92  A    between atoms: _235  and  _238
REMARK   93  A    between atoms: _238  and  _239
REMARK   94  A    between atoms: _239  and  _240
REMARK   95  A    between atoms: _242  and  _244
REMARK   96  A    between atoms: _244  and  _245
REMARK   97  A    between atoms: _244  and  _247
REMARK   98  A    between atoms: _250  and  _252
REMARK   99  A    between atoms: _252  and  _253
REMARK  100  A    between atoms: _252  and  _255
REMARK  101  A    between atoms: _257  and  _259
REMARK  102  A    between atoms: _259  and  _260
REMARK  103  A    between atoms: _263  and  _265
REMARK  104  A    between atoms: _265  and  _266
REMARK  105  A    between atoms: _265  and  _268
REMARK  106  A    between atoms: _268  and  _269
REMARK  107  A    between atoms: _274  and  _275
REMARK  108  A    between atoms: _278  and  _279
REMARK  109  A    between atoms: _284  and  _286
REMARK  110  A    between atoms: _286  and  _287
REMARK  111  A    between atoms: _286  and  _289
REMARK  112  A    between atoms: _289  and  _290
REMARK  113  A    between atoms: _290  and  _291
REMARK  114  A    between atoms: _293  and  _295
REMARK  115  A    between atoms: _295  and  _296
REMARK  116  A    between atoms: _299  and  _301
REMARK  117  A    between atoms: _301  and  _302
REMARK  118  A    between atoms: _301  and  _304
REMARK  119  A    between atoms: _304  and  _305
REMARK  120  A    between atoms: _308  and  _310
REMARK  121  A    between atoms: _310  and  _311
REMARK  122  A    between atoms: _313  and  _315
REMARK  123  A    between atoms: _315  and  _316
REMARK  124  A    between atoms: _315  and  _318
REMARK  125  A    between atoms: _318  and  _319
REMARK  126  A    between atoms: _324  and  _326
REMARK  127  A    between atoms: _326  and  _327
REMARK  128  A    between atoms: _326  and  _329
REMARK  129  A    between atoms: _329  and  _330
REMARK  130  A    between atoms: _333  and  _335
REMARK  131  A    between atoms: _335  and  _336
REMARK  132  A    between atoms: _335  and  _338
REMARK  133  A    between atoms: _338  and  _339
REMARK  134  A    between atoms: _344  and  _345
REMARK  135  A    between atoms: _347  and  _349
REMARK  136  A    between atoms: _349  and  _350
REMARK  137  A    between atoms: _349  and  _352
REMARK  138  A    between atoms: _352  and  _353
REMARK  139  A    between atoms: _356  and  _358
REMARK  140  A    between atoms: _358  and  _359
REMARK  141  A    between atoms: _358  and  _361
REMARK  142  A    between atoms: _361  and  _362
REMARK  143  A    between atoms: _367  and  _368
REMARK  144  A    between atoms: _371  and  _372
REMARK  145  A    between atoms: _377  and  _379
REMARK  146  A    between atoms: _379  and  _380
REMARK  147  A    between atoms: _379  and  _382
REMARK  148  A    between atoms: _382  and  _383
REMARK  149  A    between atoms: _388  and  _389
REMARK  150  A    between atoms: _391  and  _393
REMARK  151  A    between atoms: _393  and  _394
REMARK  152  A    between atoms: _393  and  _396
REMARK  153  A    between atoms: _396  and  _397
REMARK  154  A    between atoms: _397  and  _398
REMARK  155  A    between atoms: _400  and  _402
REMARK  156  A    between atoms: _402  and  _403
REMARK  157  A    between atoms: _402  and  _405
REMARK  158  A    between atoms: _405  and  _406
REMARK  159  A    between atoms: _411  and  _412
REMARK  160  A    between atoms: _414  and  _416
REMARK  161  A    between atoms: _416  and  _417
REMARK  162  A    between atoms: _416  and  _419
REMARK  163  A    between atoms: _419  and  _420
REMARK  164  A    between atoms: _423  and  _425
REMARK  165  A    between atoms: _425  and  _426
REMARK  166  A    between atoms: _429  and  _431
REMARK  167  A    between atoms: _431  and  _432
REMARK  168  A    between atoms: _434  and  _436
REMARK  169  A    between atoms: _436  and  _437
REMARK  170  A    between atoms: _436  and  _439
REMARK  171  A    between atoms: _439  and  _440
REMARK  172  A    between atoms: _445  and  _446
REMARK  173  A    between atoms: _448  and  _450
REMARK  174  A    between atoms: _450  and  _451
REMARK  175  A    between atoms: _450  and  _453
REMARK  176  A    between atoms: _453  and  _454
REMARK  177  A    between atoms: _459  and  _461
REMARK  178  A    between atoms: _461  and  _462
REMARK  179  A    between atoms: _461  and  _464
REMARK  180  A    between atoms: _466  and  _468
REMARK  181  A    between atoms: _468  and  _469
REMARK  182  A    between atoms: _468  and  _471
REMARK  183  A    between atoms: _471  and  _472
REMARK  184  A    between atoms: _472  and  _473
REMARK  185  A    between atoms: _473  and  _474
REMARK  186  A    between atoms: _483  and  _485
REMARK  187  A    between atoms: _485  and  _486
REMARK  188  A    between atoms: _489  and  _491
REMARK  189  A    between atoms: _491  and  _492
REMARK  190  A    between atoms: _495  and  _497
REMARK  191  A    between atoms: _497  and  _498
REMARK  192  A    between atoms: _497  and  _500
REMARK  193  A    between atoms: _500  and  _501
REMARK  194  A    between atoms: _511  and  _513
REMARK  195  A    between atoms: _513  and  _514
REMARK  196  A    between atoms: _513  and  _516
REMARK  197  A    between atoms: _516  and  _517
REMARK  198  A    between atoms: _520  and  _522
REMARK  199  A    between atoms: _522  and  _523
REMARK  200  A    between atoms: _522  and  _525
REMARK  201  A    between atoms: _525  and  _526
REMARK  202  A    between atoms: _526  and  _527
REMARK  203  A    between atoms: _530  and  _532
REMARK  204  A    between atoms: _532  and  _533
REMARK  205  A    between atoms: _532  and  _535
REMARK  206  A    between atoms: _535  and  _536
REMARK  207  A    between atoms: _539  and  _541
REMARK  208  A    between atoms: _541  and  _542
REMARK  209  A    between atoms: _541  and  _544
REMARK  210  A    between atoms: _544  and  _545
REMARK  211  A    between atoms: _545  and  _546
REMARK  212  A    between atoms: _546  and  _547
REMARK  213  A    between atoms: _547  and  _548
REMARK  214  A    between atoms: _552  and  _554
REMARK  215  A    between atoms: _554  and  _555
REMARK  216  A    between atoms: _554  and  _557
REMARK  217  A    between atoms: _557  and  _558
REMARK  218  A    between atoms: _558  and  _559
REMARK  219  A    between atoms: _562  and  _564
REMARK  220  A    between atoms: _564  and  _565
REMARK  221  A    between atoms: _564  and  _567
REMARK  222  A    between atoms: _567  and  _568
REMARK  223  A    between atoms: _574  and  _576
REMARK  224  A    between atoms: _576  and  _577
REMARK  225  A    between atoms: _576  and  _579
REMARK  226  A    between atoms: _579  and  _580
REMARK  227  A    between atoms: _586  and  _588
REMARK  228  A    between atoms: _588  and  _589
REMARK  229  A    between atoms: _588  and  _591
REMARK  230  A    between atoms: _591  and  _592
REMARK  231  A    between atoms: _592  and  _593
REMARK  232  A    between atoms: _596  and  _598
REMARK  233  A    between atoms: _598  and  _599
REMARK  234  A    between atoms: _598  and  _601
REMARK  235  A    between atoms: _604  and  _606
REMARK  236  A    between atoms: _606  and  _607
REMARK  237  A    between atoms: _610  and  _612
REMARK  238  A    between atoms: _612  and  _613
REMARK  239  A    between atoms: _612  and  _615
REMARK  240  A    between atoms: _615  and  _616
REMARK  241  A    between atoms: _619  and  _621
REMARK  242  A    between atoms: _621  and  _622
REMARK  243  A    between atoms: _621  and  _624
REMARK  244  A    between atoms: _627  and  _629
REMARK  245  A    between atoms: _629  and  _630
REMARK  246  A    between atoms: _629  and  _632
REMARK  247  A    between atoms: _632  and  _633
REMARK                            x       y       z     vdW  Elec       q    Type
REMARK                         _______ _______ _______ _____ _____    ______ ____
ROOT
ATOM      1  O   HOH     1      10.444   9.805  18.869  0.00  0.00    +0.000 OA
ENDROOT
TORSDOF 0
REMARK  Name = ../refined-set-2016/4x5y/4x5y_pocket.pdb
REMARK  247 active torsions:
REMARK  status: ('A' for Active; 'I' for Inactive)
REMARK    1  A    between atoms: _1  and  _3
REMARK    2  A    between atoms: _3  and  _4
REMARK    3  A    between atoms: _3  and  _6
REMARK    4  A    between atoms: _6  and  _7
REMARK    5  A    between atoms: _10  and  _12
REMARK    6  A    between atoms: _12  and  _13
REMARK    7  A    between atoms: _12  and  _15
REMARK    8  A    between atoms: _15  and  _16
REMARK    9  A    between atoms: _18  and  _20
REMARK   10  A    between atoms: _20  and  _21
REMARK   11  A    between atoms: _20  and  _23
REMARK   12  A    between atoms: _23  and  _24
REMARK   13  A    between atoms: _26  and  _28
REMARK   14  A    between atoms: _28  and  _29
REMARK   15  A    between atoms: _31  and  _33
REMARK   16  A    between atoms: _33  and  _34
REMARK   17  A    between atoms: _37  and  _39
REMARK   18  A    between atoms: _39  and  _40
REMARK   19  A    between atoms: _39  and  _42
REMARK   20  A    between atoms: _42  and  _43
REMARK   21  A    between atoms: _49  and  _51
REMARK   22  A    between atoms: _51  and  _52
REMARK   23  A    between atoms: _51  and  _54
REMARK   24  A    between atoms: _54  and  _55
REMARK   25  A    between atoms: _58  and  _60
REMARK   26  A    between atoms: _60  and  _61
REMARK   27  A    between atoms: _64  and  _66
REMARK   28  A    between atoms: _66  and  _67
REMARK   29  A    between atoms: _66  and  _69
REMARK   30  A    between atoms: _69  and  _70
REMARK   31  A    between atoms: _73  and  _75
REMARK   32  A    between atoms: _75  and  _76
REMARK   33  A    between atoms: _75  and  _78
REMARK   34  A    between atoms: _78  and  _79
REMARK   35  A    between atoms: _81  and  _83
REMARK   36  A    between atoms: _83  and  _84
REMARK   37  A    between atoms: _83  and  _86
REMARK   38  A    between atoms: _86  and  _87
REMARK   39  A    between atoms: _87  and  _88
REMARK   40  A    between atoms: _91  and  _93
REMARK   41  A    between atoms: _93  and  _94
REMARK   42  A    between atoms: _93  and  _96
REMARK   43  A    between atoms: _96  and  _97
REMARK   44  A    between atoms: _100  and  _102
REMARK   45  A    between atoms: _102  and  _103
REMARK   46  A    between atoms: _102  and  _105
REMARK   47  A    between atoms: _105  and  _106
REMARK   48  A    between atoms: _111  and  _113
REMARK   49  A    between atoms: _113  and  _114
REMARK   50  A    between atoms: _117  and  _119
REMARK   51  A    between atoms: _119  and  _120
REMARK   52  A    between atoms: _119  and  _122
REMARK   53  A    between atoms: _122  and  _123
REMARK   54  A    between atoms: _133  and  _135
REMARK   55  A    between atoms: _135  and  _136
REMARK   56  A    between atoms: _135  and  _138
REMARK   57  A    between atoms: _138  and  _139
REMARK   58  A    between atoms: _142  and  _144
REMARK   59  A    between atoms: _144  and  _145
REMARK   60  A    between atoms: _144  and  _147
REMARK   61  A    between atoms: _147  and  _148
REMARK   62  A    between atoms: _158  and  _160
REMARK   63  A    between atoms: _160  and  _161
REMARK   64  A    between atoms: _160  and  _163
REMARK   65  A    between atoms: _163  and  _164
REMARK   66  A    between atoms: _169  and  _171
REMARK   67  A    between atoms: _171  and  _172
REMARK   68  A    between atoms: _174  and  _176
REMARK   69  A    between atoms: _176  and  _177
REMARK   70  A    between atoms: _176  and  _179
REMARK   71  A    between atoms: _179  and  _180
REMARK   72  A    between atoms: _190  and  _192
REMARK   73  A    between atoms: _192  and  _193
REMARK   74  A    between atoms: _192  and  _195
REMARK   75  A    between atoms: _195  and  _196
REMARK   76  A    between atoms: _199  and  _201
REMARK   77  A    between atoms: _201  and  _202
REMARK   78  A    between atoms: _201  and  _204
REMARK   79  A    between atoms: _204  and  _205
REMARK   80  A    between atoms: _205  and  _206
REMARK   81  A    between atoms: _208  and  _210
REMARK   82  A    between atoms: _210  and  _211
REMARK   83  A    between atoms: _210  and  _213
REMARK   84  A    between atoms: _215  and  _217
REMARK   85  A    between atoms: _217  and  _218
REMARK   86  A    between atoms: _221  and  _223
REMARK   87  A    between atoms: _223  and  _224
REMARK   88  A    between atoms: _223  and  _226
REMARK   89  A    between atoms: _226  and  _227
REMARK   90  A    between atoms: _233  and  _235
REMARK   91  A    between atoms: _235  and  _236
REMARK   92  A    between atoms: _235  and  _238
REMARK   93  A    between atoms: _238  and  _239
REMARK   94  A    between atoms: _239  and  _240
REMARK   95  A    between atoms: _242  and  _244
REMARK   96  A    between atoms: _244  and  _245
REMARK   97  A    between atoms: _244  and  _247
REMARK   98  A    between atoms: _250  and  _252
REMARK   99  A    between atoms: _252  and  _253
REMARK  100  A    between atoms: _252  and  _255
REMARK  101  A    between atoms: _257  and  _259
REMARK  102  A    between atoms: _259  and  _260
REMARK  103  A    between atoms: _263  and  _265
REMARK  104  A    between atoms: _265  and  _266
REMARK  105  A    between atoms: _265  and  _268
REMARK  106  A    between atoms: _268  and  _269
REMARK  107  A    between atoms: _274  and  _275
REMARK  108  A    between atoms: _278  and  _279
REMARK  109  A    between atoms: _284  and  _286
REMARK  110  A    between atoms: _286  and  _287
REMARK  111  A    between atoms: _286  and  _289
REMARK  112  A    between atoms: _289  and  _290
REMARK  113  A    between atoms: _290  and  _291
REMARK  114  A    between atoms: _293  and  _295
REMARK  115  A    between atoms: _295  and  _296
REMARK  116  A    between atoms: _299  and  _301
REMARK  117  A    between atoms: _301  and  _302
REMARK  118  A    between atoms: _301  and  _304
REMARK  119  A    between atoms: _304  and  _305
REMARK  120  A    between atoms: _308  and  _310
REMARK  121  A    between atoms: _310  and  _311
REMARK  122  A    between atoms: _313  and  _315
REMARK  123  A    between atoms: _315  and  _316
REMARK  124  A    between atoms: _315  and  _318
REMARK  125  A    between atoms: _318  and  _319
REMARK  126  A    between atoms: _324  and  _326
REMARK  127  A    between atoms: _326  and  _327
REMARK  128  A    between atoms: _326  and  _329
REMARK  129  A    between atoms: _329  and  _330
REMARK  130  A    between atoms: _333  and  _335
REMARK  131  A    between atoms: _335  and  _336
REMARK  132  A    between atoms: _335  and  _338
REMARK  133  A    between atoms: _338  and  _339
REMARK  134  A    between atoms: _344  and  _345
REMARK  135  A    between atoms: _347  and  _349
REMARK  136  A    between atoms: _349  and  _350
REMARK  137  A    between atoms: _349  and  _352
REMARK  138  A    between atoms: _352  and  _353
REMARK  139  A    between atoms: _356  and  _358
REMARK  140  A    between atoms: _358  and  _359
REMARK  141  A    between atoms: _358  and  _361
REMARK  142  A    between atoms: _361  and  _362
REMARK  143  A    between atoms: _367  and  _368
REMARK  144  A    between atoms: _371  and  _372
REMARK  145  A    between atoms: _377  and  _379
REMARK  146  A    between atoms: _379  and  _380
REMARK  147  A    between atoms: _379  and  _382
REMARK  148  A    between atoms: _382  and  _383
REMARK  149  A    between atoms: _388  and  _389
REMARK  150  A    between atoms: _391  and  _393
REMARK  151  A    between atoms: _393  and  _394
REMARK  152  A    between atoms: _393  and  _396
REMARK  153  A    between atoms: _396  and  _397
REMARK  154  A    between atoms: _397  and  _398
REMARK  155  A    between atoms: _400  and  _402
REMARK  156  A    between atoms: _402  and  _403
REMARK  157  A    between atoms: _402  and  _405
REMARK  158  A    between atoms: _405  and  _406
REMARK  159  A    between atoms: _411  and  _412
REMARK  160  A    between atoms: _414  and  _416
REMARK  161  A    between atoms: _416  and  _417
REMARK  162  A    between atoms: _416  and  _419
REMARK  163  A    between atoms: _419  and  _420
REMARK  164  A    between atoms: _423  and  _425
REMARK  165  A    between atoms: _425  and  _426
REMARK  166  A    between atoms: _429  and  _431
REMARK  167  A    between atoms: _431  and  _432
REMARK  168  A    between atoms: _434  and  _436
REMARK  169  A    between atoms: _436  and  _437
REMARK  170  A    between atoms: _436  and  _439
REMARK  171  A    between atoms: _439  and  _440
REMARK  172  A    between atoms: _445  and  _446
REMARK  173  A    between atoms: _448  and  _450
REMARK  174  A    between atoms: _450  and  _451
REMARK  175  A    between atoms: _450  and  _453
REMARK  176  A    between atoms: _453  and  _454
REMARK  177  A    between atoms: _459  and  _461
REMARK  178  A    between atoms: _461  and  _462
REMARK  179  A    between atoms: _461  and  _464
REMARK  180  A    between atoms: _466  and  _468
REMARK  181  A    between atoms: _468  and  _469
REMARK  182  A    between atoms: _468  and  _471
REMARK  183  A    between atoms: _471  and  _472
REMARK  184  A    between atoms: _472  and  _473
REMARK  185  A    between atoms: _473  and  _474
REMARK  186  A    between atoms: _483  and  _485
REMARK  187  A    between atoms: _485  and  _486
REMARK  188  A    between atoms: _489  and  _491
REMARK  189  A    between atoms: _491  and  _492
REMARK  190  A    between atoms: _495  and  _497
REMARK  191  A    between atoms: _497  and  _498
REMARK  192  A    between atoms: _497  and  _500
REMARK  193  A    between atoms: _500  and  _501
REMARK  194  A    between atoms: _511  and  _513
REMARK  195  A    between atoms: _513  and  _514
REMARK  196  A    between atoms: _513  and  _516
REMARK  197  A    between atoms: _516  and  _517
REMARK  198  A    between atoms: _520  and  _522
REMARK  199  A    between atoms: _522  and  _523
REMARK  200  A    between atoms: _522  and  _525
REMARK  201  A    between atoms: _525  and  _526
REMARK  202  A    between atoms: _526  and  _527
REMARK  203  A    between atoms: _530  and  _532
REMARK  204  A    between atoms: _532  and  _533
REMARK  205  A    between atoms: _532  and  _535
REMARK  206  A    between atoms: _535  and  _536
REMARK  207  A    between atoms: _539  and  _541
REMARK  208  A    between atoms: _541  and  _542
REMARK  209  A    between atoms: _541  and  _544
REMARK  210  A    between atoms: _544  and  _545
REMARK  211  A    between atoms: _545  and  _546
REMARK  212  A    between atoms: _546  and  _547
REMARK  213  A    between atoms: _547  and  _548
REMARK  214  A    between atoms: _552  and  _554
REMARK  215  A    between atoms: _554  and  _555
REMARK  216  A    between atoms: _554  and  _557
REMARK  217  A    between atoms: _557  and  _558
REMARK  218  A    between atoms: _558  and  _559
REMARK  219  A    between atoms: _562  and  _564
REMARK  220  A    between atoms: _564  and  _565
REMARK  221  A    between atoms: _564  and  _567
REMARK  222  A    between atoms: _567  and  _568
REMARK  223  A    between atoms: _574  and  _576
REMARK  224  A    between atoms: _576  and  _577
REMARK  225  A    between atoms: _576  and  _579
REMARK  226  A    between atoms: _579  and  _580
REMARK  227  A    between atoms: _586  and  _588
REMARK  228  A    between atoms: _588  and  _589
REMARK  229  A    between atoms: _588  and  _591
REMARK  230  A    between atoms: _591  and  _592
REMARK  231  A    between atoms: _592  and  _593
REMARK  232  A    between atoms: _596  and  _598
REMARK  233  A    between atoms: _598  and  _599
REMARK  234  A    between atoms: _598  and  _601
REMARK  235  A    between atoms: _604  and  _606
REMARK  236  A    between atoms: _606  and  _607
REMARK  237  A    between atoms: _610  and  _612
REMARK  238  A    between atoms: _612  and  _613
REMARK  239  A    between atoms: _612  and  _615
REMARK  240  A    between atoms: _615  and  _616
REMARK  241  A    between atoms: _619  and  _621
REMARK  242  A    between atoms: _621  and  _622
REMARK  243  A    between atoms: _621  and  _624
REMARK  244  A    between atoms: _627  and  _629
REMARK  245  A    between atoms: _629  and  _630
REMARK  246  A    between atoms: _629  and  _632
REMARK  247  A    between atoms: _632  and  _633
REMARK                            x       y       z     vdW  Elec       q    Type
REMARK                         _______ _______ _______ _____ _____    ______ ____
ROOT
ATOM      1  O   HOH     1      13.766  15.697  10.570  0.00  0.00    +0.000 OA
ENDROOT
TORSDOF 0
REMARK  Name = ../refined-set-2016/4x5y/4x5y_pocket.pdb
REMARK  247 active torsions:
REMARK  status: ('A' for Active; 'I' for Inactive)
REMARK    1  A    between atoms: _1  and  _3
REMARK    2  A    between atoms: _3  and  _4
REMARK    3  A    between atoms: _3  and  _6
REMARK    4  A    between atoms: _6  and  _7
REMARK    5  A    between atoms: _10  and  _12
REMARK    6  A    between atoms: _12  and  _13
REMARK    7  A    between atoms: _12  and  _15
REMARK    8  A    between atoms: _15  and  _16
REMARK    9  A    between atoms: _18  and  _20
REMARK   10  A    between atoms: _20  and  _21
REMARK   11  A    between atoms: _20  and  _23
REMARK   12  A    between atoms: _23  and  _24
REMARK   13  A    between atoms: _26  and  _28
REMARK   14  A    between atoms: _28  and  _29
REMARK   15  A    between atoms: _31  and  _33
REMARK   16  A    between atoms: _33  and  _34
REMARK   17  A    between atoms: _37  and  _39
REMARK   18  A    between atoms: _39  and  _40
REMARK   19  A    between atoms: _39  and  _42
REMARK   20  A    between atoms: _42  and  _43
REMARK   21  A    between atoms: _49  and  _51
REMARK   22  A    between atoms: _51  and  _52
REMARK   23  A    between atoms: _51  and  _54
REMARK   24  A    between atoms: _54  and  _55
REMARK   25  A    between atoms: _58  and  _60
REMARK   26  A    between atoms: _60  and  _61
REMARK   27  A    between atoms: _64  and  _66
REMARK   28  A    between atoms: _66  and  _67
REMARK   29  A    between atoms: _66  and  _69
REMARK   30  A    between atoms: _69  and  _70
REMARK   31  A    between atoms: _73  and  _75
REMARK   32  A    between atoms: _75  and  _76
REMARK   33  A    between atoms: _75  and  _78
REMARK   34  A    between atoms: _78  and  _79
REMARK   35  A    between atoms: _81  and  _83
REMARK   36  A    between atoms: _83  and  _84
REMARK   37  A    between atoms: _83  and  _86
REMARK   38  A    between atoms: _86  and  _87
REMARK   39  A    between atoms: _87  and  _88
REMARK   40  A    between atoms: _91  and  _93
REMARK   41  A    between atoms: _93  and  _94
REMARK   42  A    between atoms: _93  and  _96
REMARK   43  A    between atoms: _96  and  _97
REMARK   44  A    between atoms: _100  and  _102
REMARK   45  A    between atoms: _102  and  _103
REMARK   46  A    between atoms: _102  and  _105
REMARK   47  A    between atoms: _105  and  _106
REMARK   48  A    between atoms: _111  and  _113
REMARK   49  A    between atoms: _113  and  _114
REMARK   50  A    between atoms: _117  and  _119
REMARK   51  A    between atoms: _119  and  _120
REMARK   52  A    between atoms: _119  and  _122
REMARK   53  A    between atoms: _122  and  _123
REMARK   54  A    between atoms: _133  and  _135
REMARK   55  A    between atoms: _135  and  _136
REMARK   56  A    between atoms: _135  and  _138
REMARK   57  A    between atoms: _138  and  _139
REMARK   58  A    between atoms: _142  and  _144
REMARK   59  A    between atoms: _144  and  _145
REMARK   60  A    between atoms: _144  and  _147
REMARK   61  A    between atoms: _147  and  _148
REMARK   62  A    between atoms: _158  and  _160
REMARK   63  A    between atoms: _160  and  _161
REMARK   64  A    between atoms: _160  and  _163
REMARK   65  A    between atoms: _163  and  _164
REMARK   66  A    between atoms: _169  and  _171
REMARK   67  A    between atoms: _171  and  _172
REMARK   68  A    between atoms: _174  and  _176
REMARK   69  A    between atoms: _176  and  _177
REMARK   70  A    between atoms: _176  and  _179
REMARK   71  A    between atoms: _179  and  _180
REMARK   72  A    between atoms: _190  and  _192
REMARK   73  A    between atoms: _192  and  _193
REMARK   74  A    between atoms: _192  and  _195
REMARK   75  A    between atoms: _195  and  _196
REMARK   76  A    between atoms: _199  and  _201
REMARK   77  A    between atoms: _201  and  _202
REMARK   78  A    between atoms: _201  and  _204
REMARK   79  A    between atoms: _204  and  _205
REMARK   80  A    between atoms: _205  and  _206
REMARK   81  A    between atoms: _208  and  _210
REMARK   82  A    between atoms: _210  and  _211
REMARK   83  A    between atoms: _210  and  _213
REMARK   84  A    between atoms: _215  and  _217
REMARK   85  A    between atoms: _217  and  _218
REMARK   86  A    between atoms: _221  and  _223
REMARK   87  A    between atoms: _223  and  _224
REMARK   88  A    between atoms: _223  and  _226
REMARK   89  A    between atoms: _226  and  _227
REMARK   90  A    between atoms: _233  and  _235
REMARK   91  A    between atoms: _235  and  _236
REMARK   92  A    between atoms: _235  and  _238
REMARK   93  A    between atoms: _238  and  _239
REMARK   94  A    between atoms: _239  and  _240
REMARK   95  A    between atoms: _242  and  _244
REMARK   96  A    between atoms: _244  and  _245
REMARK   97  A    between atoms: _244  and  _247
REMARK   98  A    between atoms: _250  and  _252
REMARK   99  A    between atoms: _252  and  _253
REMARK  100  A    between atoms: _252  and  _255
REMARK  101  A    between atoms: _257  and  _259
REMARK  102  A    between atoms: _259  and  _260
REMARK  103  A    between atoms: _263  and  _265
REMARK  104  A    between atoms: _265  and  _266
REMARK  105  A    between atoms: _265  and  _268
REMARK  106  A    between atoms: _268  and  _269
REMARK  107  A    between atoms: _274  and  _275
REMARK  108  A    between atoms: _278  and  _279
REMARK  109  A    between atoms: _284  and  _286
REMARK  110  A    between atoms: _286  and  _287
REMARK  111  A    between atoms: _286  and  _289
REMARK  112  A    between atoms: _289  and  _290
REMARK  113  A    between atoms: _290  and  _291
REMARK  114  A    between atoms: _293  and  _295
REMARK  115  A    between atoms: _295  and  _296
REMARK  116  A    between atoms: _299  and  _301
REMARK  117  A    between atoms: _301  and  _302
REMARK  118  A    between atoms: _301  and  _304
REMARK  119  A    between atoms: _304  and  _305
REMARK  120  A    between atoms: _308  and  _310
REMARK  121  A    between atoms: _310  and  _311
REMARK  122  A    between atoms: _313  and  _315
REMARK  123  A    between atoms: _315  and  _316
REMARK  124  A    between atoms: _315  and  _318
REMARK  125  A    between atoms: _318  and  _319
REMARK  126  A    between atoms: _324  and  _326
REMARK  127  A    between atoms: _326  and  _327
REMARK  128  A    between atoms: _326  and  _329
REMARK  129  A    between atoms: _329  and  _330
REMARK  130  A    between atoms: _333  and  _335
REMARK  131  A    between atoms: _335  and  _336
REMARK  132  A    between atoms: _335  and  _338
REMARK  133  A    between atoms: _338  and  _339
REMARK  134  A    between atoms: _344  and  _345
REMARK  135  A    between atoms: _347  and  _349
REMARK  136  A    between atoms: _349  and  _350
REMARK  137  A    between atoms: _349  and  _352
REMARK  138  A    between atoms: _352  and  _353
REMARK  139  A    between atoms: _356  and  _358
REMARK  140  A    between atoms: _358  and  _359
REMARK  141  A    between atoms: _358  and  _361
REMARK  142  A    between atoms: _361  and  _362
REMARK  143  A    between atoms: _367  and  _368
REMARK  144  A    between atoms: _371  and  _372
REMARK  145  A    between atoms: _377  and  _379
REMARK  146  A    between atoms: _379  and  _380
REMARK  147  A    between atoms: _379  and  _382
REMARK  148  A    between atoms: _382  and  _383
REMARK  149  A    between atoms: _388  and  _389
REMARK  150  A    between atoms: _391  and  _393
REMARK  151  A    between atoms: _393  and  _394
REMARK  152  A    between atoms: _393  and  _396
REMARK  153  A    between atoms: _396  and  _397
REMARK  154  A    between atoms: _397  and  _398
REMARK  155  A    between atoms: _400  and  _402
REMARK  156  A    between atoms: _402  and  _403
REMARK  157  A    between atoms: _402  and  _405
REMARK  158  A    between atoms: _405  and  _406
REMARK  159  A    between atoms: _411  and  _412
REMARK  160  A    between atoms: _414  and  _416
REMARK  161  A    between atoms: _416  and  _417
REMARK  162  A    between atoms: _416  and  _419
REMARK  163  A    between atoms: _419  and  _420
REMARK  164  A    between atoms: _423  and  _425
REMARK  165  A    between atoms: _425  and  _426
REMARK  166  A    between atoms: _429  and  _431
REMARK  167  A    between atoms: _431  and  _432
REMARK  168  A    between atoms: _434  and  _436
REMARK  169  A    between atoms: _436  and  _437
REMARK  170  A    between atoms: _436  and  _439
REMARK  171  A    between atoms: _439  and  _440
REMARK  172  A    between atoms: _445  and  _446
REMARK  173  A    between atoms: _448  and  _450
REMARK  174  A    between atoms: _450  and  _451
REMARK  175  A    between atoms: _450  and  _453
REMARK  176  A    between atoms: _453  and  _454
REMARK  177  A    between atoms: _459  and  _461
REMARK  178  A    between atoms: _461  and  _462
REMARK  179  A    between atoms: _461  and  _464
REMARK  180  A    between atoms: _466  and  _468
REMARK  181  A    between atoms: _468  and  _469
REMARK  182  A    between atoms: _468  and  _471
REMARK  183  A    between atoms: _471  and  _472
REMARK  184  A    between atoms: _472  and  _473
REMARK  185  A    between atoms: _473  and  _474
REMARK  186  A    between atoms: _483  and  _485
REMARK  187  A    between atoms: _485  and  _486
REMARK  188  A    between atoms: _489  and  _491
REMARK  189  A    between atoms: _491  and  _492
REMARK  190  A    between atoms: _495  and  _497
REMARK  191  A    between atoms: _497  and  _498
REMARK  192  A    between atoms: _497  and  _500
REMARK  193  A    between atoms: _500  and  _501
REMARK  194  A    between atoms: _511  and  _513
REMARK  195  A    between atoms: _513  and  _514
REMARK  196  A    between atoms: _513  and  _516
REMARK  197  A    between atoms: _516  and  _517
REMARK  198  A    between atoms: _520  and  _522
REMARK  199  A    between atoms: _522  and  _523
REMARK  200  A    between atoms: _522  and  _525
REMARK  201  A    between atoms: _525  and  _526
REMARK  202  A    between atoms: _526  and  _527
REMARK  203  A    between atoms: _530  and  _532
REMARK  204  A    between atoms: _532  and  _533
REMARK  205  A    between atoms: _532  and  _535
REMARK  206  A    between atoms: _535  and  _536
REMARK  207  A    between atoms: _539  and  _541
REMARK  208  A    between atoms: _541  and  _542
REMARK  209  A    between atoms: _541  and  _544
REMARK  210  A    between atoms: _544  and  _545
REMARK  211  A    between atoms: _545  and  _546
REMARK  212  A    between atoms: _546  and  _547
REMARK  213  A    between atoms: _547  and  _548
REMARK  214  A    between atoms: _552  and  _554
REMARK  215  A    between atoms: _554  and  _555
REMARK  216  A    between atoms: _554  and  _557
REMARK  217  A    between atoms: _557  and  _558
REMARK  218  A    between atoms: _558  and  _559
REMARK  219  A    between atoms: _562  and  _564
REMARK  220  A    between atoms: _564  and  _565
REMARK  221  A    between atoms: _564  and  _567
REMARK  222  A    between atoms: _567  and  _568
REMARK  223  A    between atoms: _574  and  _576
REMARK  224  A    between atoms: _576  and  _577
REMARK  225  A    between atoms: _576  and  _579
REMARK  226  A    between atoms: _579  and  _580
REMARK  227  A    between atoms: _586  and  _588
REMARK  228  A    between atoms: _588  and  _589
REMARK  229  A    between atoms: _588  and  _591
REMARK  230  A    between atoms: _591  and  _592
REMARK  231  A    between atoms: _592  and  _593
REMARK  232  A    between atoms: _596  and  _598
REMARK  233  A    between atoms: _598  and  _599
REMARK  234  A    between atoms: _598  and  _601
REMARK  235  A    between atoms: _604  and  _606
REMARK  236  A    between atoms: _606  and  _607
REMARK  237  A    between atoms: _610  and  _612
REMARK  238  A    between atoms: _612  and  _613
REMARK  239  A    between atoms: _612  and  _615
REMARK  240  A    between atoms: _615  and  _616
REMARK  241  A    between atoms: _619  and  _621
REMARK  242  A    between atoms: _621  and  _622
REMARK  243  A    between atoms: _621  and  _624
REMARK  244  A    between atoms: _627  and  _629
REMARK  245  A    between atoms: _629  and  _630
REMARK  246  A    between atoms: _629  and  _632
REMARK  247  A    between atoms: _632  and  _633
REMARK                            x       y       z     vdW  Elec       q    Type
REMARK                         _______ _______ _______ _____ _____    ______ ____
ROOT
ATOM      1  O   HOH     1      15.016  12.702  12.437  0.00  0.00    +0.000 OA
ENDROOT
TORSDOF 0
REMARK  Name = ../refined-set-2016/4x5y/4x5y_pocket.pdb
REMARK  247 active torsions:
REMARK  status: ('A' for Active; 'I' for Inactive)
REMARK    1  A    between atoms: _1  and  _3
REMARK    2  A    between atoms: _3  and  _4
REMARK    3  A    between atoms: _3  and  _6
REMARK    4  A    between atoms: _6  and  _7
REMARK    5  A    between atoms: _10  and  _12
REMARK    6  A    between atoms: _12  and  _13
REMARK    7  A    between atoms: _12  and  _15
REMARK    8  A    between atoms: _15  and  _16
REMARK    9  A    between atoms: _18  and  _20
REMARK   10  A    between atoms: _20  and  _21
REMARK   11  A    between atoms: _20  and  _23
REMARK   12  A    between atoms: _23  and  _24
REMARK   13  A    between atoms: _26  and  _28
REMARK   14  A    between atoms: _28  and  _29
REMARK   15  A    between atoms: _31  and  _33
REMARK   16  A    between atoms: _33  and  _34
REMARK   17  A    between atoms: _37  and  _39
REMARK   18  A    between atoms: _39  and  _40
REMARK   19  A    between atoms: _39  and  _42
REMARK   20  A    between atoms: _42  and  _43
REMARK   21  A    between atoms: _49  and  _51
REMARK   22  A    between atoms: _51  and  _52
REMARK   23  A    between atoms: _51  and  _54
REMARK   24  A    between atoms: _54  and  _55
REMARK   25  A    between atoms: _58  and  _60
REMARK   26  A    between atoms: _60  and  _61
REMARK   27  A    between atoms: _64  and  _66
REMARK   28  A    between atoms: _66  and  _67
REMARK   29  A    between atoms: _66  and  _69
REMARK   30  A    between atoms: _69  and  _70
REMARK   31  A    between atoms: _73  and  _75
REMARK   32  A    between atoms: _75  and  _76
REMARK   33  A    between atoms: _75  and  _78
REMARK   34  A    between atoms: _78  and  _79
REMARK   35  A    between atoms: _81  and  _83
REMARK   36  A    between atoms: _83  and  _84
REMARK   37  A    between atoms: _83  and  _86
REMARK   38  A    between atoms: _86  and  _87
REMARK   39  A    between atoms: _87  and  _88
REMARK   40  A    between atoms: _91  and  _93
REMARK   41  A    between atoms: _93  and  _94
REMARK   42  A    between atoms: _93  and  _96
REMARK   43  A    between atoms: _96  and  _97
REMARK   44  A    between atoms: _100  and  _102
REMARK   45  A    between atoms: _102  and  _103
REMARK   46  A    between atoms: _102  and  _105
REMARK   47  A    between atoms: _105  and  _106
REMARK   48  A    between atoms: _111  and  _113
REMARK   49  A    between atoms: _113  and  _114
REMARK   50  A    between atoms: _117  and  _119
REMARK   51  A    between atoms: _119  and  _120
REMARK   52  A    between atoms: _119  and  _122
REMARK   53  A    between atoms: _122  and  _123
REMARK   54  A    between atoms: _133  and  _135
REMARK   55  A    between atoms: _135  and  _136
REMARK   56  A    between atoms: _135  and  _138
REMARK   57  A    between atoms: _138  and  _139
REMARK   58  A    between atoms: _142  and  _144
REMARK   59  A    between atoms: _144  and  _145
REMARK   60  A    between atoms: _144  and  _147
REMARK   61  A    between atoms: _147  and  _148
REMARK   62  A    between atoms: _158  and  _160
REMARK   63  A    between atoms: _160  and  _161
REMARK   64  A    between atoms: _160  and  _163
REMARK   65  A    between atoms: _163  and  _164
REMARK   66  A    between atoms: _169  and  _171
REMARK   67  A    between atoms: _171  and  _172
REMARK   68  A    between atoms: _174  and  _176
REMARK   69  A    between atoms: _176  and  _177
REMARK   70  A    between atoms: _176  and  _179
REMARK   71  A    between atoms: _179  and  _180
REMARK   72  A    between atoms: _190  and  _192
REMARK   73  A    between atoms: _192  and  _193
REMARK   74  A    between atoms: _192  and  _195
REMARK   75  A    between atoms: _195  and  _196
REMARK   76  A    between atoms: _199  and  _201
REMARK   77  A    between atoms: _201  and  _202
REMARK   78  A    between atoms: _201  and  _204
REMARK   79  A    between atoms: _204  and  _205
REMARK   80  A    between atoms: _205  and  _206
REMARK   81  A    between atoms: _208  and  _210
REMARK   82  A    between atoms: _210  and  _211
REMARK   83  A    between atoms: _210  and  _213
REMARK   84  A    between atoms: _215  and  _217
REMARK   85  A    between atoms: _217  and  _218
REMARK   86  A    between atoms: _221  and  _223
REMARK   87  A    between atoms: _223  and  _224
REMARK   88  A    between atoms: _223  and  _226
REMARK   89  A    between atoms: _226  and  _227
REMARK   90  A    between atoms: _233  and  _235
REMARK   91  A    between atoms: _235  and  _236
REMARK   92  A    between atoms: _235  and  _238
REMARK   93  A    between atoms: _238  and  _239
REMARK   94  A    between atoms: _239  and  _240
REMARK   95  A    between atoms: _242  and  _244
REMARK   96  A    between atoms: _244  and  _245
REMARK   97  A    between atoms: _244  and  _247
REMARK   98  A    between atoms: _250  and  _252
REMARK   99  A    between atoms: _252  and  _253
REMARK  100  A    between atoms: _252  and  _255
REMARK  101  A    between atoms: _257  and  _259
REMARK  102  A    between atoms: _259  and  _260
REMARK  103  A    between atoms: _263  and  _265
REMARK  104  A    between atoms: _265  and  _266
REMARK  105  A    between atoms: _265  and  _268
REMARK  106  A    between atoms: _268  and  _269
REMARK  107  A    between atoms: _274  and  _275
REMARK  108  A    between atoms: _278  and  _279
REMARK  109  A    between atoms: _284  and  _286
REMARK  110  A    between atoms: _286  and  _287
REMARK  111  A    between atoms: _286  and  _289
REMARK  112  A    between atoms: _289  and  _290
REMARK  113  A    between atoms: _290  and  _291
REMARK  114  A    between atoms: _293  and  _295
REMARK  115  A    between atoms: _295  and  _296
REMARK  116  A    between atoms: _299  and  _301
REMARK  117  A    between atoms: _301  and  _302
REMARK  118  A    between atoms: _301  and  _304
REMARK  119  A    between atoms: _304  and  _305
REMARK  120  A    between atoms: _308  and  _310
REMARK  121  A    between atoms: _310  and  _311
REMARK  122  A    between atoms: _313  and  _315
REMARK  123  A    between atoms: _315  and  _316
REMARK  124  A    between atoms: _315  and  _318
REMARK  125  A    between atoms: _318  and  _319
REMARK  126  A    between atoms: _324  and  _326
REMARK  127  A    between atoms: _326  and  _327
REMARK  128  A    between atoms: _326  and  _329
REMARK  129  A    between atoms: _329  and  _330
REMARK  130  A    between atoms: _333  and  _335
REMARK  131  A    between atoms: _335  and  _336
REMARK  132  A    between atoms: _335  and  _338
REMARK  133  A    between atoms: _338  and  _339
REMARK  134  A    between atoms: _344  and  _345
REMARK  135  A    between atoms: _347  and  _349
REMARK  136  A    between atoms: _349  and  _350
REMARK  137  A    between atoms: _349  and  _352
REMARK  138  A    between atoms: _352  and  _353
REMARK  139  A    between atoms: _356  and  _358
REMARK  140  A    between atoms: _358  and  _359
REMARK  141  A    between atoms: _358  and  _361
REMARK  142  A    between atoms: _361  and  _362
REMARK  143  A    between atoms: _367  and  _368
REMARK  144  A    between atoms: _371  and  _372
REMARK  145  A    between atoms: _377  and  _379
REMARK  146  A    between atoms: _379  and  _380
REMARK  147  A    between atoms: _379  and  _382
REMARK  148  A    between atoms: _382  and  _383
REMARK  149  A    between atoms: _388  and  _389
REMARK  150  A    between atoms: _391  and  _393
REMARK  151  A    between atoms: _393  and  _394
REMARK  152  A    between atoms: _393  and  _396
REMARK  153  A    between atoms: _396  and  _397
REMARK  154  A    between atoms: _397  and  _398
REMARK  155  A    between atoms: _400  and  _402
REMARK  156  A    between atoms: _402  and  _403
REMARK  157  A    between atoms: _402  and  _405
REMARK  158  A    between atoms: _405  and  _406
REMARK  159  A    between atoms: _411  and  _412
REMARK  160  A    between atoms: _414  and  _416
REMARK  161  A    between atoms: _416  and  _417
REMARK  162  A    between atoms: _416  and  _419
REMARK  163  A    between atoms: _419  and  _420
REMARK  164  A    between atoms: _423  and  _425
REMARK  165  A    between atoms: _425  and  _426
REMARK  166  A    between atoms: _429  and  _431
REMARK  167  A    between atoms: _431  and  _432
REMARK  168  A    between atoms: _434  and  _436
REMARK  169  A    between atoms: _436  and  _437
REMARK  170  A    between atoms: _436  and  _439
REMARK  171  A    between atoms: _439  and  _440
REMARK  172  A    between atoms: _445  and  _446
REMARK  173  A    between atoms: _448  and  _450
REMARK  174  A    between atoms: _450  and  _451
REMARK  175  A    between atoms: _450  and  _453
REMARK  176  A    between atoms: _453  and  _454
REMARK  177  A    between atoms: _459  and  _461
REMARK  178  A    between atoms: _461  and  _462
REMARK  179  A    between atoms: _461  and  _464
REMARK  180  A    between atoms: _466  and  _468
REMARK  181  A    between atoms: _468  and  _469
REMARK  182  A    between atoms: _468  and  _471
REMARK  183  A    between atoms: _471  and  _472
REMARK  184  A    between atoms: _472  and  _473
REMARK  185  A    between atoms: _473  and  _474
REMARK  186  A    between atoms: _483  and  _485
REMARK  187  A    between atoms: _485  and  _486
REMARK  188  A    between atoms: _489  and  _491
REMARK  189  A    between atoms: _491  and  _492
REMARK  190  A    between atoms: _495  and  _497
REMARK  191  A    between atoms: _497  and  _498
REMARK  192  A    between atoms: _497  and  _500
REMARK  193  A    between atoms: _500  and  _501
REMARK  194  A    between atoms: _511  and  _513
REMARK  195  A    between atoms: _513  and  _514
REMARK  196  A    between atoms: _513  and  _516
REMARK  197  A    between atoms: _516  and  _517
REMARK  198  A    between atoms: _520  and  _522
REMARK  199  A    between atoms: _522  and  _523
REMARK  200  A    between atoms: _522  and  _525
REMARK  201  A    between atoms: _525  and  _526
REMARK  202  A    between atoms: _526  and  _527
REMARK  203  A    between atoms: _530  and  _532
REMARK  204  A    between atoms: _532  and  _533
REMARK  205  A    between atoms: _532  and  _535
REMARK  206  A    between atoms: _535  and  _536
REMARK  207  A    between atoms: _539  and  _541
REMARK  208  A    between atoms: _541  and  _542
REMARK  209  A    between atoms: _541  and  _544
REMARK  210  A    between atoms: _544  and  _545
REMARK  211  A    between atoms: _545  and  _546
REMARK  212  A    between atoms: _546  and  _547
REMARK  213  A    between atoms: _547  and  _548
REMARK  214  A    between atoms: _552  and  _554
REMARK  215  A    between atoms: _554  and  _555
REMARK  216  A    between atoms: _554  and  _557
REMARK  217  A    between atoms: _557  and  _558
REMARK  218  A    between atoms: _558  and  _559
REMARK  219  A    between atoms: _562  and  _564
REMARK  220  A    between atoms: _564  and  _565
REMARK  221  A    between atoms: _564  and  _567
REMARK  222  A    between atoms: _567  and  _568
REMARK  223  A    between atoms: _574  and  _576
REMARK  224  A    between atoms: _576  and  _577
REMARK  225  A    between atoms: _576  and  _579
REMARK  226  A    between atoms: _579  and  _580
REMARK  227  A    between atoms: _586  and  _588
REMARK  228  A    between atoms: _588  and  _589
REMARK  229  A    between atoms: _588  and  _591
REMARK  230  A    between atoms: _591  and  _592
REMARK  231  A    between atoms: _592  and  _593
REMARK  232  A    between atoms: _596  and  _598
REMARK  233  A    between atoms: _598  and  _599
REMARK  234  A    between atoms: _598  and  _601
REMARK  235  A    between atoms: _604  and  _606
REMARK  236  A    between atoms: _606  and  _607
REMARK  237  A    between atoms: _610  and  _612
REMARK  238  A    between atoms: _612  and  _613
REMARK  239  A    between atoms: _612  and  _615
REMARK  240  A    between atoms: _615  and  _616
REMARK  241  A    between atoms: _619  and  _621
REMARK  242  A    between atoms: _621  and  _622
REMARK  243  A    between atoms: _621  and  _624
REMARK  244  A    between atoms: _627  and  _629
REMARK  245  A    between atoms: _629  and  _630
REMARK  246  A    between atoms: _629  and  _632
REMARK  247  A    between atoms: _632  and  _633
REMARK                            x       y       z     vdW  Elec       q    Type
REMARK                         _______ _______ _______ _____ _____    ______ ____
ROOT
ATOM      1  O   HOH     1      16.665   7.874   4.889  0.00  0.00    +0.000 OA
ENDROOT
TORSDOF 0
REMARK  Name = ../refined-set-2016/4x5y/4x5y_pocket.pdb
REMARK  247 active torsions:
REMARK  status: ('A' for Active; 'I' for Inactive)
REMARK    1  A    between atoms: _1  and  _3
REMARK    2  A    between atoms: _3  and  _4
REMARK    3  A    between atoms: _3  and  _6
REMARK    4  A    between atoms: _6  and  _7
REMARK    5  A    between atoms: _10  and  _12
REMARK    6  A    between atoms: _12  and  _13
REMARK    7  A    between atoms: _12  and  _15
REMARK    8  A    between atoms: _15  and  _16
REMARK    9  A    between atoms: _18  and  _20
REMARK   10  A    between atoms: _20  and  _21
REMARK   11  A    between atoms: _20  and  _23
REMARK   12  A    between atoms: _23  and  _24
REMARK   13  A    between atoms: _26  and  _28
REMARK   14  A    between atoms: _28  and  _29
REMARK   15  A    between atoms: _31  and  _33
REMARK   16  A    between atoms: _33  and  _34
REMARK   17  A    between atoms: _37  and  _39
REMARK   18  A    between atoms: _39  and  _40
REMARK   19  A    between atoms: _39  and  _42
REMARK   20  A    between atoms: _42  and  _43
REMARK   21  A    between atoms: _49  and  _51
REMARK   22  A    between atoms: _51  and  _52
REMARK   23  A    between atoms: _51  and  _54
REMARK   24  A    between atoms: _54  and  _55
REMARK   25  A    between atoms: _58  and  _60
REMARK   26  A    between atoms: _60  and  _61
REMARK   27  A    between atoms: _64  and  _66
REMARK   28  A    between atoms: _66  and  _67
REMARK   29  A    between atoms: _66  and  _69
REMARK   30  A    between atoms: _69  and  _70
REMARK   31  A    between atoms: _73  and  _75
REMARK   32  A    between atoms: _75  and  _76
REMARK   33  A    between atoms: _75  and  _78
REMARK   34  A    between atoms: _78  and  _79
REMARK   35  A    between atoms: _81  and  _83
REMARK   36  A    between atoms: _83  and  _84
REMARK   37  A    between atoms: _83  and  _86
REMARK   38  A    between atoms: _86  and  _87
REMARK   39  A    between atoms: _87  and  _88
REMARK   40  A    between atoms: _91  and  _93
REMARK   41  A    between atoms: _93  and  _94
REMARK   42  A    between atoms: _93  and  _96
REMARK   43  A    between atoms: _96  and  _97
REMARK   44  A    between atoms: _100  and  _102
REMARK   45  A    between atoms: _102  and  _103
REMARK   46  A    between atoms: _102  and  _105
REMARK   47  A    between atoms: _105  and  _106
REMARK   48  A    between atoms: _111  and  _113
REMARK   49  A    between atoms: _113  and  _114
REMARK   50  A    between atoms: _117  and  _119
REMARK   51  A    between atoms: _119  and  _120
REMARK   52  A    between atoms: _119  and  _122
REMARK   53  A    between atoms: _122  and  _123
REMARK   54  A    between atoms: _133  and  _135
REMARK   55  A    between atoms: _135  and  _136
REMARK   56  A    between atoms: _135  and  _138
REMARK   57  A    between atoms: _138  and  _139
REMARK   58  A    between atoms: _142  and  _144
REMARK   59  A    between atoms: _144  and  _145
REMARK   60  A    between atoms: _144  and  _147
REMARK   61  A    between atoms: _147  and  _148
REMARK   62  A    between atoms: _158  and  _160
REMARK   63  A    between atoms: _160  and  _161
REMARK   64  A    between atoms: _160  and  _163
REMARK   65  A    between atoms: _163  and  _164
REMARK   66  A    between atoms: _169  and  _171
REMARK   67  A    between atoms: _171  and  _172
REMARK   68  A    between atoms: _174  and  _176
REMARK   69  A    between atoms: _176  and  _177
REMARK   70  A    between atoms: _176  and  _179
REMARK   71  A    between atoms: _179  and  _180
REMARK   72  A    between atoms: _190  and  _192
REMARK   73  A    between atoms: _192  and  _193
REMARK   74  A    between atoms: _192  and  _195
REMARK   75  A    between atoms: _195  and  _196
REMARK   76  A    between atoms: _199  and  _201
REMARK   77  A    between atoms: _201  and  _202
REMARK   78  A    between atoms: _201  and  _204
REMARK   79  A    between atoms: _204  and  _205
REMARK   80  A    between atoms: _205  and  _206
REMARK   81  A    between atoms: _208  and  _210
REMARK   82  A    between atoms: _210  and  _211
REMARK   83  A    between atoms: _210  and  _213
REMARK   84  A    between atoms: _215  and  _217
REMARK   85  A    between atoms: _217  and  _218
REMARK   86  A    between atoms: _221  and  _223
REMARK   87  A    between atoms: _223  and  _224
REMARK   88  A    between atoms: _223  and  _226
REMARK   89  A    between atoms: _226  and  _227
REMARK   90  A    between atoms: _233  and  _235
REMARK   91  A    between atoms: _235  and  _236
REMARK   92  A    between atoms: _235  and  _238
REMARK   93  A    between atoms: _238  and  _239
REMARK   94  A    between atoms: _239  and  _240
REMARK   95  A    between atoms: _242  and  _244
REMARK   96  A    between atoms: _244  and  _245
REMARK   97  A    between atoms: _244  and  _247
REMARK   98  A    between atoms: _250  and  _252
REMARK   99  A    between atoms: _252  and  _253
REMARK  100  A    between atoms: _252  and  _255
REMARK  101  A    between atoms: _257  and  _259
REMARK  102  A    between atoms: _259  and  _260
REMARK  103  A    between atoms: _263  and  _265
REMARK  104  A    between atoms: _265  and  _266
REMARK  105  A    between atoms: _265  and  _268
REMARK  106  A    between atoms: _268  and  _269
REMARK  107  A    between atoms: _274  and  _275
REMARK  108  A    between atoms: _278  and  _279
REMARK  109  A    between atoms: _284  and  _286
REMARK  110  A    between atoms: _286  and  _287
REMARK  111  A    between atoms: _286  and  _289
REMARK  112  A    between atoms: _289  and  _290
REMARK  113  A    between atoms: _290  and  _291
REMARK  114  A    between atoms: _293  and  _295
REMARK  115  A    between atoms: _295  and  _296
REMARK  116  A    between atoms: _299  and  _301
REMARK  117  A    between atoms: _301  and  _302
REMARK  118  A    between atoms: _301  and  _304
REMARK  119  A    between atoms: _304  and  _305
REMARK  120  A    between atoms: _308  and  _310
REMARK  121  A    between atoms: _310  and  _311
REMARK  122  A    between atoms: _313  and  _315
REMARK  123  A    between atoms: _315  and  _316
REMARK  124  A    between atoms: _315  and  _318
REMARK  125  A    between atoms: _318  and  _319
REMARK  126  A    between atoms: _324  and  _326
REMARK  127  A    between atoms: _326  and  _327
REMARK  128  A    between atoms: _326  and  _329
REMARK  129  A    between atoms: _329  and  _330
REMARK  130  A    between atoms: _333  and  _335
REMARK  131  A    between atoms: _335  and  _336
REMARK  132  A    between atoms: _335  and  _338
REMARK  133  A    between atoms: _338  and  _339
REMARK  134  A    between atoms: _344  and  _345
REMARK  135  A    between atoms: _347  and  _349
REMARK  136  A    between atoms: _349  and  _350
REMARK  137  A    between atoms: _349  and  _352
REMARK  138  A    between atoms: _352  and  _353
REMARK  139  A    between atoms: _356  and  _358
REMARK  140  A    between atoms: _358  and  _359
REMARK  141  A    between atoms: _358  and  _361
REMARK  142  A    between atoms: _361  and  _362
REMARK  143  A    between atoms: _367  and  _368
REMARK  144  A    between atoms: _371  and  _372
REMARK  145  A    between atoms: _377  and  _379
REMARK  146  A    between atoms: _379  and  _380
REMARK  147  A    between atoms: _379  and  _382
REMARK  148  A    between atoms: _382  and  _383
REMARK  149  A    between atoms: _388  and  _389
REMARK  150  A    between atoms: _391  and  _393
REMARK  151  A    between atoms: _393  and  _394
REMARK  152  A    between atoms: _393  and  _396
REMARK  153  A    between atoms: _396  and  _397
REMARK  154  A    between atoms: _397  and  _398
REMARK  155  A    between atoms: _400  and  _402
REMARK  156  A    between atoms: _402  and  _403
REMARK  157  A    between atoms: _402  and  _405
REMARK  158  A    between atoms: _405  and  _406
REMARK  159  A    between atoms: _411  and  _412
REMARK  160  A    between atoms: _414  and  _416
REMARK  161  A    between atoms: _416  and  _417
REMARK  162  A    between atoms: _416  and  _419
REMARK  163  A    between atoms: _419  and  _420
REMARK  164  A    between atoms: _423  and  _425
REMARK  165  A    between atoms: _425  and  _426
REMARK  166  A    between atoms: _429  and  _431
REMARK  167  A    between atoms: _431  and  _432
REMARK  168  A    between atoms: _434  and  _436
REMARK  169  A    between atoms: _436  and  _437
REMARK  170  A    between atoms: _436  and  _439
REMARK  171  A    between atoms: _439  and  _440
REMARK  172  A    between atoms: _445  and  _446
REMARK  173  A    between atoms: _448  and  _450
REMARK  174  A    between atoms: _450  and  _451
REMARK  175  A    between atoms: _450  and  _453
REMARK  176  A    between atoms: _453  and  _454
REMARK  177  A    between atoms: _459  and  _461
REMARK  178  A    between atoms: _461  and  _462
REMARK  179  A    between atoms: _461  and  _464
REMARK  180  A    between atoms: _466  and  _468
REMARK  181  A    between atoms: _468  and  _469
REMARK  182  A    between atoms: _468  and  _471
REMARK  183  A    between atoms: _471  and  _472
REMARK  184  A    between atoms: _472  and  _473
REMARK  185  A    between atoms: _473  and  _474
REMARK  186  A    between atoms: _483  and  _485
REMARK  187  A    between atoms: _485  and  _486
REMARK  188  A    between atoms: _489  and  _491
REMARK  189  A    between atoms: _491  and  _492
REMARK  190  A    between atoms: _495  and  _497
REMARK  191  A    between atoms: _497  and  _498
REMARK  192  A    between atoms: _497  and  _500
REMARK  193  A    between atoms: _500  and  _501
REMARK  194  A    between atoms: _511  and  _513
REMARK  195  A    between atoms: _513  and  _514
REMARK  196  A    between atoms: _513  and  _516
REMARK  197  A    between atoms: _516  and  _517
REMARK  198  A    between atoms: _520  and  _522
REMARK  199  A    between atoms: _522  and  _523
REMARK  200  A    between atoms: _522  and  _525
REMARK  201  A    between atoms: _525  and  _526
REMARK  202  A    between atoms: _526  and  _527
REMARK  203  A    between atoms: _530  and  _532
REMARK  204  A    between atoms: _532  and  _533
REMARK  205  A    between atoms: _532  and  _535
REMARK  206  A    between atoms: _535  and  _536
REMARK  207  A    between atoms: _539  and  _541
REMARK  208  A    between atoms: _541  and  _542
REMARK  209  A    between atoms: _541  and  _544
REMARK  210  A    between atoms: _544  and  _545
REMARK  211  A    between atoms: _545  and  _546
REMARK  212  A    between atoms: _546  and  _547
REMARK  213  A    between atoms: _547  and  _548
REMARK  214  A    between atoms: _552  and  _554
REMARK  215  A    between atoms: _554  and  _555
REMARK  216  A    between atoms: _554  and  _557
REMARK  217  A    between atoms: _557  and  _558
REMARK  218  A    between atoms: _558  and  _559
REMARK  219  A    between atoms: _562  and  _564
REMARK  220  A    between atoms: _564  and  _565
REMARK  221  A    between atoms: _564  and  _567
REMARK  222  A    between atoms: _567  and  _568
REMARK  223  A    between atoms: _574  and  _576
REMARK  224  A    between atoms: _576  and  _577
REMARK  225  A    between atoms: _576  and  _579
REMARK  226  A    between atoms: _579  and  _580
REMARK  227  A    between atoms: _586  and  _588
REMARK  228  A    between atoms: _588  and  _589
REMARK  229  A    between atoms: _588  and  _591
REMARK  230  A    between atoms: _591  and  _592
REMARK  231  A    between atoms: _592  and  _593
REMARK  232  A    between atoms: _596  and  _598
REMARK  233  A    between atoms: _598  and  _599
REMARK  234  A    between atoms: _598  and  _601
REMARK  235  A    between atoms: _604  and  _606
REMARK  236  A    between atoms: _606  and  _607
REMARK  237  A    between atoms: _610  and  _612
REMARK  238  A    between atoms: _612  and  _613
REMARK  239  A    between atoms: _612  and  _615
REMARK  240  A    between atoms: _615  and  _616
REMARK  241  A    between atoms: _619  and  _621
REMARK  242  A    between atoms: _621  and  _622
REMARK  243  A    between atoms: _621  and  _624
REMARK  244  A    between atoms: _627  and  _629
REMARK  245  A    between atoms: _629  and  _630
REMARK  246  A    between atoms: _629  and  _632
REMARK  247  A    between atoms: _632  and  _633
REMARK                            x       y       z     vdW  Elec       q    Type
REMARK                         _______ _______ _______ _____ _____    ______ ____
ROOT
ATOM      1  O   HOH     1      16.275  11.271  10.095  0.00  0.00    +0.000 OA
ENDROOT
TORSDOF 0
REMARK  Name = ../refined-set-2016/4x5y/4x5y_pocket.pdb
REMARK  247 active torsions:
REMARK  status: ('A' for Active; 'I' for Inactive)
REMARK    1  A    between atoms: _1  and  _3
REMARK    2  A    between atoms: _3  and  _4
REMARK    3  A    between atoms: _3  and  _6
REMARK    4  A    between atoms: _6  and  _7
REMARK    5  A    between atoms: _10  and  _12
REMARK    6  A    between atoms: _12  and  _13
REMARK    7  A    between atoms: _12  and  _15
REMARK    8  A    between atoms: _15  and  _16
REMARK    9  A    between atoms: _18  and  _20
REMARK   10  A    between atoms: _20  and  _21
REMARK   11  A    between atoms: _20  and  _23
REMARK   12  A    between atoms: _23  and  _24
REMARK   13  A    between atoms: _26  and  _28
REMARK   14  A    between atoms: _28  and  _29
REMARK   15  A    between atoms: _31  and  _33
REMARK   16  A    between atoms: _33  and  _34
REMARK   17  A    between atoms: _37  and  _39
REMARK   18  A    between atoms: _39  and  _40
REMARK   19  A    between atoms: _39  and  _42
REMARK   20  A    between atoms: _42  and  _43
REMARK   21  A    between atoms: _49  and  _51
REMARK   22  A    between atoms: _51  and  _52
REMARK   23  A    between atoms: _51  and  _54
REMARK   24  A    between atoms: _54  and  _55
REMARK   25  A    between atoms: _58  and  _60
REMARK   26  A    between atoms: _60  and  _61
REMARK   27  A    between atoms: _64  and  _66
REMARK   28  A    between atoms: _66  and  _67
REMARK   29  A    between atoms: _66  and  _69
REMARK   30  A    between atoms: _69  and  _70
REMARK   31  A    between atoms: _73  and  _75
REMARK   32  A    between atoms: _75  and  _76
REMARK   33  A    between atoms: _75  and  _78
REMARK   34  A    between atoms: _78  and  _79
REMARK   35  A    between atoms: _81  and  _83
REMARK   36  A    between atoms: _83  and  _84
REMARK   37  A    between atoms: _83  and  _86
REMARK   38  A    between atoms: _86  and  _87
REMARK   39  A    between atoms: _87  and  _88
REMARK   40  A    between atoms: _91  and  _93
REMARK   41  A    between atoms: _93  and  _94
REMARK   42  A    between atoms: _93  and  _96
REMARK   43  A    between atoms: _96  and  _97
REMARK   44  A    between atoms: _100  and  _102
REMARK   45  A    between atoms: _102  and  _103
REMARK   46  A    between atoms: _102  and  _105
REMARK   47  A    between atoms: _105  and  _106
REMARK   48  A    between atoms: _111  and  _113
REMARK   49  A    between atoms: _113  and  _114
REMARK   50  A    between atoms: _117  and  _119
REMARK   51  A    between atoms: _119  and  _120
REMARK   52  A    between atoms: _119  and  _122
REMARK   53  A    between atoms: _122  and  _123
REMARK   54  A    between atoms: _133  and  _135
REMARK   55  A    between atoms: _135  and  _136
REMARK   56  A    between atoms: _135  and  _138
REMARK   57  A    between atoms: _138  and  _139
REMARK   58  A    between atoms: _142  and  _144
REMARK   59  A    between atoms: _144  and  _145
REMARK   60  A    between atoms: _144  and  _147
REMARK   61  A    between atoms: _147  and  _148
REMARK   62  A    between atoms: _158  and  _160
REMARK   63  A    between atoms: _160  and  _161
REMARK   64  A    between atoms: _160  and  _163
REMARK   65  A    between atoms: _163  and  _164
REMARK   66  A    between atoms: _169  and  _171
REMARK   67  A    between atoms: _171  and  _172
REMARK   68  A    between atoms: _174  and  _176
REMARK   69  A    between atoms: _176  and  _177
REMARK   70  A    between atoms: _176  and  _179
REMARK   71  A    between atoms: _179  and  _180
REMARK   72  A    between atoms: _190  and  _192
REMARK   73  A    between atoms: _192  and  _193
REMARK   74  A    between atoms: _192  and  _195
REMARK   75  A    between atoms: _195  and  _196
REMARK   76  A    between atoms: _199  and  _201
REMARK   77  A    between atoms: _201  and  _202
REMARK   78  A    between atoms: _201  and  _204
REMARK   79  A    between atoms: _204  and  _205
REMARK   80  A    between atoms: _205  and  _206
REMARK   81  A    between atoms: _208  and  _210
REMARK   82  A    between atoms: _210  and  _211
REMARK   83  A    between atoms: _210  and  _213
REMARK   84  A    between atoms: _215  and  _217
REMARK   85  A    between atoms: _217  and  _218
REMARK   86  A    between atoms: _221  and  _223
REMARK   87  A    between atoms: _223  and  _224
REMARK   88  A    between atoms: _223  and  _226
REMARK   89  A    between atoms: _226  and  _227
REMARK   90  A    between atoms: _233  and  _235
REMARK   91  A    between atoms: _235  and  _236
REMARK   92  A    between atoms: _235  and  _238
REMARK   93  A    between atoms: _238  and  _239
REMARK   94  A    between atoms: _239  and  _240
REMARK   95  A    between atoms: _242  and  _244
REMARK   96  A    between atoms: _244  and  _245
REMARK   97  A    between atoms: _244  and  _247
REMARK   98  A    between atoms: _250  and  _252
REMARK   99  A    between atoms: _252  and  _253
REMARK  100  A    between atoms: _252  and  _255
REMARK  101  A    between atoms: _257  and  _259
REMARK  102  A    between atoms: _259  and  _260
REMARK  103  A    between atoms: _263  and  _265
REMARK  104  A    between atoms: _265  and  _266
REMARK  105  A    between atoms: _265  and  _268
REMARK  106  A    between atoms: _268  and  _269
REMARK  107  A    between atoms: _274  and  _275
REMARK  108  A    between atoms: _278  and  _279
REMARK  109  A    between atoms: _284  and  _286
REMARK  110  A    between atoms: _286  and  _287
REMARK  111  A    between atoms: _286  and  _289
REMARK  112  A    between atoms: _289  and  _290
REMARK  113  A    between atoms: _290  and  _291
REMARK  114  A    between atoms: _293  and  _295
REMARK  115  A    between atoms: _295  and  _296
REMARK  116  A    between atoms: _299  and  _301
REMARK  117  A    between atoms: _301  and  _302
REMARK  118  A    between atoms: _301  and  _304
REMARK  119  A    between atoms: _304  and  _305
REMARK  120  A    between atoms: _308  and  _310
REMARK  121  A    between atoms: _310  and  _311
REMARK  122  A    between atoms: _313  and  _315
REMARK  123  A    between atoms: _315  and  _316
REMARK  124  A    between atoms: _315  and  _318
REMARK  125  A    between atoms: _318  and  _319
REMARK  126  A    between atoms: _324  and  _326
REMARK  127  A    between atoms: _326  and  _327
REMARK  128  A    between atoms: _326  and  _329
REMARK  129  A    between atoms: _329  and  _330
REMARK  130  A    between atoms: _333  and  _335
REMARK  131  A    between atoms: _335  and  _336
REMARK  132  A    between atoms: _335  and  _338
REMARK  133  A    between atoms: _338  and  _339
REMARK  134  A    between atoms: _344  and  _345
REMARK  135  A    between atoms: _347  and  _349
REMARK  136  A    between atoms: _349  and  _350
REMARK  137  A    between atoms: _349  and  _352
REMARK  138  A    between atoms: _352  and  _353
REMARK  139  A    between atoms: _356  and  _358
REMARK  140  A    between atoms: _358  and  _359
REMARK  141  A    between atoms: _358  and  _361
REMARK  142  A    between atoms: _361  and  _362
REMARK  143  A    between atoms: _367  and  _368
REMARK  144  A    between atoms: _371  and  _372
REMARK  145  A    between atoms: _377  and  _379
REMARK  146  A    between atoms: _379  and  _380
REMARK  147  A    between atoms: _379  and  _382
REMARK  148  A    between atoms: _382  and  _383
REMARK  149  A    between atoms: _388  and  _389
REMARK  150  A    between atoms: _391  and  _393
REMARK  151  A    between atoms: _393  and  _394
REMARK  152  A    between atoms: _393  and  _396
REMARK  153  A    between atoms: _396  and  _397
REMARK  154  A    between atoms: _397  and  _398
REMARK  155  A    between atoms: _400  and  _402
REMARK  156  A    between atoms: _402  and  _403
REMARK  157  A    between atoms: _402  and  _405
REMARK  158  A    between atoms: _405  and  _406
REMARK  159  A    between atoms: _411  and  _412
REMARK  160  A    between atoms: _414  and  _416
REMARK  161  A    between atoms: _416  and  _417
REMARK  162  A    between atoms: _416  and  _419
REMARK  163  A    between atoms: _419  and  _420
REMARK  164  A    between atoms: _423  and  _425
REMARK  165  A    between atoms: _425  and  _426
REMARK  166  A    between atoms: _429  and  _431
REMARK  167  A    between atoms: _431  and  _432
REMARK  168  A    between atoms: _434  and  _436
REMARK  169  A    between atoms: _436  and  _437
REMARK  170  A    between atoms: _436  and  _439
REMARK  171  A    between atoms: _439  and  _440
REMARK  172  A    between atoms: _445  and  _446
REMARK  173  A    between atoms: _448  and  _450
REMARK  174  A    between atoms: _450  and  _451
REMARK  175  A    between atoms: _450  and  _453
REMARK  176  A    between atoms: _453  and  _454
REMARK  177  A    between atoms: _459  and  _461
REMARK  178  A    between atoms: _461  and  _462
REMARK  179  A    between atoms: _461  and  _464
REMARK  180  A    between atoms: _466  and  _468
REMARK  181  A    between atoms: _468  and  _469
REMARK  182  A    between atoms: _468  and  _471
REMARK  183  A    between atoms: _471  and  _472
REMARK  184  A    between atoms: _472  and  _473
REMARK  185  A    between atoms: _473  and  _474
REMARK  186  A    between atoms: _483  and  _485
REMARK  187  A    between atoms: _485  and  _486
REMARK  188  A    between atoms: _489  and  _491
REMARK  189  A    between atoms: _491  and  _492
REMARK  190  A    between atoms: _495  and  _497
REMARK  191  A    between atoms: _497  and  _498
REMARK  192  A    between atoms: _497  and  _500
REMARK  193  A    between atoms: _500  and  _501
REMARK  194  A    between atoms: _511  and  _513
REMARK  195  A    between atoms: _513  and  _514
REMARK  196  A    between atoms: _513  and  _516
REMARK  197  A    between atoms: _516  and  _517
REMARK  198  A    between atoms: _520  and  _522
REMARK  199  A    between atoms: _522  and  _523
REMARK  200  A    between atoms: _522  and  _525
REMARK  201  A    between atoms: _525  and  _526
REMARK  202  A    between atoms: _526  and  _527
REMARK  203  A    between atoms: _530  and  _532
REMARK  204  A    between atoms: _532  and  _533
REMARK  205  A    between atoms: _532  and  _535
REMARK  206  A    between atoms: _535  and  _536
REMARK  207  A    between atoms: _539  and  _541
REMARK  208  A    between atoms: _541  and  _542
REMARK  209  A    between atoms: _541  and  _544
REMARK  210  A    between atoms: _544  and  _545
REMARK  211  A    between atoms: _545  and  _546
REMARK  212  A    between atoms: _546  and  _547
REMARK  213  A    between atoms: _547  and  _548
REMARK  214  A    between atoms: _552  and  _554
REMARK  215  A    between atoms: _554  and  _555
REMARK  216  A    between atoms: _554  and  _557
REMARK  217  A    between atoms: _557  and  _558
REMARK  218  A    between atoms: _558  and  _559
REMARK  219  A    between atoms: _562  and  _564
REMARK  220  A    between atoms: _564  and  _565
REMARK  221  A    between atoms: _564  and  _567
REMARK  222  A    between atoms: _567  and  _568
REMARK  223  A    between atoms: _574  and  _576
REMARK  224  A    between atoms: _576  and  _577
REMARK  225  A    between atoms: _576  and  _579
REMARK  226  A    between atoms: _579  and  _580
REMARK  227  A    between atoms: _586  and  _588
REMARK  228  A    between atoms: _588  and  _589
REMARK  229  A    between atoms: _588  and  _591
REMARK  230  A    between atoms: _591  and  _592
REMARK  231  A    between atoms: _592  and  _593
REMARK  232  A    between atoms: _596  and  _598
REMARK  233  A    between atoms: _598  and  _599
REMARK  234  A    between atoms: _598  and  _601
REMARK  235  A    between atoms: _604  and  _606
REMARK  236  A    between atoms: _606  and  _607
REMARK  237  A    between atoms: _610  and  _612
REMARK  238  A    between atoms: _612  and  _613
REMARK  239  A    between atoms: _612  and  _615
REMARK  240  A    between atoms: _615  and  _616
REMARK  241  A    between atoms: _619  and  _621
REMARK  242  A    between atoms: _621  and  _622
REMARK  243  A    between atoms: _621  and  _624
REMARK  244  A    between atoms: _627  and  _629
REMARK  245  A    between atoms: _629  and  _630
REMARK  246  A    between atoms: _629  and  _632
REMARK  247  A    between atoms: _632  and  _633
REMARK                            x       y       z     vdW  Elec       q    Type
REMARK                         _______ _______ _______ _____ _____    ______ ____
ROOT
ATOM      1  O   HOH     1      12.097   9.914   7.453  0.00  0.00    +0.000 OA
ENDROOT
TORSDOF 0
REMARK  Name = ../refined-set-2016/4x5y/4x5y_pocket.pdb
REMARK  247 active torsions:
REMARK  status: ('A' for Active; 'I' for Inactive)
REMARK    1  A    between atoms: _1  and  _3
REMARK    2  A    between atoms: _3  and  _4
REMARK    3  A    between atoms: _3  and  _6
REMARK    4  A    between atoms: _6  and  _7
REMARK    5  A    between atoms: _10  and  _12
REMARK    6  A    between atoms: _12  and  _13
REMARK    7  A    between atoms: _12  and  _15
REMARK    8  A    between atoms: _15  and  _16
REMARK    9  A    between atoms: _18  and  _20
REMARK   10  A    between atoms: _20  and  _21
REMARK   11  A    between atoms: _20  and  _23
REMARK   12  A    between atoms: _23  and  _24
REMARK   13  A    between atoms: _26  and  _28
REMARK   14  A    between atoms: _28  and  _29
REMARK   15  A    between atoms: _31  and  _33
REMARK   16  A    between atoms: _33  and  _34
REMARK   17  A    between atoms: _37  and  _39
REMARK   18  A    between atoms: _39  and  _40
REMARK   19  A    between atoms: _39  and  _42
REMARK   20  A    between atoms: _42  and  _43
REMARK   21  A    between atoms: _49  and  _51
REMARK   22  A    between atoms: _51  and  _52
REMARK   23  A    between atoms: _51  and  _54
REMARK   24  A    between atoms: _54  and  _55
REMARK   25  A    between atoms: _58  and  _60
REMARK   26  A    between atoms: _60  and  _61
REMARK   27  A    between atoms: _64  and  _66
REMARK   28  A    between atoms: _66  and  _67
REMARK   29  A    between atoms: _66  and  _69
REMARK   30  A    between atoms: _69  and  _70
REMARK   31  A    between atoms: _73  and  _75
REMARK   32  A    between atoms: _75  and  _76
REMARK   33  A    between atoms: _75  and  _78
REMARK   34  A    between atoms: _78  and  _79
REMARK   35  A    between atoms: _81  and  _83
REMARK   36  A    between atoms: _83  and  _84
REMARK   37  A    between atoms: _83  and  _86
REMARK   38  A    between atoms: _86  and  _87
REMARK   39  A    between atoms: _87  and  _88
REMARK   40  A    between atoms: _91  and  _93
REMARK   41  A    between atoms: _93  and  _94
REMARK   42  A    between atoms: _93  and  _96
REMARK   43  A    between atoms: _96  and  _97
REMARK   44  A    between atoms: _100  and  _102
REMARK   45  A    between atoms: _102  and  _103
REMARK   46  A    between atoms: _102  and  _105
REMARK   47  A    between atoms: _105  and  _106
REMARK   48  A    between atoms: _111  and  _113
REMARK   49  A    between atoms: _113  and  _114
REMARK   50  A    between atoms: _117  and  _119
REMARK   51  A    between atoms: _119  and  _120
REMARK   52  A    between atoms: _119  and  _122
REMARK   53  A    between atoms: _122  and  _123
REMARK   54  A    between atoms: _133  and  _135
REMARK   55  A    between atoms: _135  and  _136
REMARK   56  A    between atoms: _135  and  _138
REMARK   57  A    between atoms: _138  and  _139
REMARK   58  A    between atoms: _142  and  _144
REMARK   59  A    between atoms: _144  and  _145
REMARK   60  A    between atoms: _144  and  _147
REMARK   61  A    between atoms: _147  and  _148
REMARK   62  A    between atoms: _158  and  _160
REMARK   63  A    between atoms: _160  and  _161
REMARK   64  A    between atoms: _160  and  _163
REMARK   65  A    between atoms: _163  and  _164
REMARK   66  A    between atoms: _169  and  _171
REMARK   67  A    between atoms: _171  and  _172
REMARK   68  A    between atoms: _174  and  _176
REMARK   69  A    between atoms: _176  and  _177
REMARK   70  A    between atoms: _176  and  _179
REMARK   71  A    between atoms: _179  and  _180
REMARK   72  A    between atoms: _190  and  _192
REMARK   73  A    between atoms: _192  and  _193
REMARK   74  A    between atoms: _192  and  _195
REMARK   75  A    between atoms: _195  and  _196
REMARK   76  A    between atoms: _199  and  _201
REMARK   77  A    between atoms: _201  and  _202
REMARK   78  A    between atoms: _201  and  _204
REMARK   79  A    between atoms: _204  and  _205
REMARK   80  A    between atoms: _205  and  _206
REMARK   81  A    between atoms: _208  and  _210
REMARK   82  A    between atoms: _210  and  _211
REMARK   83  A    between atoms: _210  and  _213
REMARK   84  A    between atoms: _215  and  _217
REMARK   85  A    between atoms: _217  and  _218
REMARK   86  A    between atoms: _221  and  _223
REMARK   87  A    between atoms: _223  and  _224
REMARK   88  A    between atoms: _223  and  _226
REMARK   89  A    between atoms: _226  and  _227
REMARK   90  A    between atoms: _233  and  _235
REMARK   91  A    between atoms: _235  and  _236
REMARK   92  A    between atoms: _235  and  _238
REMARK   93  A    between atoms: _238  and  _239
REMARK   94  A    between atoms: _239  and  _240
REMARK   95  A    between atoms: _242  and  _244
REMARK   96  A    between atoms: _244  and  _245
REMARK   97  A    between atoms: _244  and  _247
REMARK   98  A    between atoms: _250  and  _252
REMARK   99  A    between atoms: _252  and  _253
REMARK  100  A    between atoms: _252  and  _255
REMARK  101  A    between atoms: _257  and  _259
REMARK  102  A    between atoms: _259  and  _260
REMARK  103  A    between atoms: _263  and  _265
REMARK  104  A    between atoms: _265  and  _266
REMARK  105  A    between atoms: _265  and  _268
REMARK  106  A    between atoms: _268  and  _269
REMARK  107  A    between atoms: _274  and  _275
REMARK  108  A    between atoms: _278  and  _279
REMARK  109  A    between atoms: _284  and  _286
REMARK  110  A    between atoms: _286  and  _287
REMARK  111  A    between atoms: _286  and  _289
REMARK  112  A    between atoms: _289  and  _290
REMARK  113  A    between atoms: _290  and  _291
REMARK  114  A    between atoms: _293  and  _295
REMARK  115  A    between atoms: _295  and  _296
REMARK  116  A    between atoms: _299  and  _301
REMARK  117  A    between atoms: _301  and  _302
REMARK  118  A    between atoms: _301  and  _304
REMARK  119  A    between atoms: _304  and  _305
REMARK  120  A    between atoms: _308  and  _310
REMARK  121  A    between atoms: _310  and  _311
REMARK  122  A    between atoms: _313  and  _315
REMARK  123  A    between atoms: _315  and  _316
REMARK  124  A    between atoms: _315  and  _318
REMARK  125  A    between atoms: _318  and  _319
REMARK  126  A    between atoms: _324  and  _326
REMARK  127  A    between atoms: _326  and  _327
REMARK  128  A    between atoms: _326  and  _329
REMARK  129  A    between atoms: _329  and  _330
REMARK  130  A    between atoms: _333  and  _335
REMARK  131  A    between atoms: _335  and  _336
REMARK  132  A    between atoms: _335  and  _338
REMARK  133  A    between atoms: _338  and  _339
REMARK  134  A    between atoms: _344  and  _345
REMARK  135  A    between atoms: _347  and  _349
REMARK  136  A    between atoms: _349  and  _350
REMARK  137  A    between atoms: _349  and  _352
REMARK  138  A    between atoms: _352  and  _353
REMARK  139  A    between atoms: _356  and  _358
REMARK  140  A    between atoms: _358  and  _359
REMARK  141  A    between atoms: _358  and  _361
REMARK  142  A    between atoms: _361  and  _362
REMARK  143  A    between atoms: _367  and  _368
REMARK  144  A    between atoms: _371  and  _372
REMARK  145  A    between atoms: _377  and  _379
REMARK  146  A    between atoms: _379  and  _380
REMARK  147  A    between atoms: _379  and  _382
REMARK  148  A    between atoms: _382  and  _383
REMARK  149  A    between atoms: _388  and  _389
REMARK  150  A    between atoms: _391  and  _393
REMARK  151  A    between atoms: _393  and  _394
REMARK  152  A    between atoms: _393  and  _396
REMARK  153  A    between atoms: _396  and  _397
REMARK  154  A    between atoms: _397  and  _398
REMARK  155  A    between atoms: _400  and  _402
REMARK  156  A    between atoms: _402  and  _403
REMARK  157  A    between atoms: _402  and  _405
REMARK  158  A    between atoms: _405  and  _406
REMARK  159  A    between atoms: _411  and  _412
REMARK  160  A    between atoms: _414  and  _416
REMARK  161  A    between atoms: _416  and  _417
REMARK  162  A    between atoms: _416  and  _419
REMARK  163  A    between atoms: _419  and  _420
REMARK  164  A    between atoms: _423  and  _425
REMARK  165  A    between atoms: _425  and  _426
REMARK  166  A    between atoms: _429  and  _431
REMARK  167  A    between atoms: _431  and  _432
REMARK  168  A    between atoms: _434  and  _436
REMARK  169  A    between atoms: _436  and  _437
REMARK  170  A    between atoms: _436  and  _439
REMARK  171  A    between atoms: _439  and  _440
REMARK  172  A    between atoms: _445  and  _446
REMARK  173  A    between atoms: _448  and  _450
REMARK  174  A    between atoms: _450  and  _451
REMARK  175  A    between atoms: _450  and  _453
REMARK  176  A    between atoms: _453  and  _454
REMARK  177  A    between atoms: _459  and  _461
REMARK  178  A    between atoms: _461  and  _462
REMARK  179  A    between atoms: _461  and  _464
REMARK  180  A    between atoms: _466  and  _468
REMARK  181  A    between atoms: _468  and  _469
REMARK  182  A    between atoms: _468  and  _471
REMARK  183  A    between atoms: _471  and  _472
REMARK  184  A    between atoms: _472  and  _473
REMARK  185  A    between atoms: _473  and  _474
REMARK  186  A    between atoms: _483  and  _485
REMARK  187  A    between atoms: _485  and  _486
REMARK  188  A    between atoms: _489  and  _491
REMARK  189  A    between atoms: _491  and  _492
REMARK  190  A    between atoms: _495  and  _497
REMARK  191  A    between atoms: _497  and  _498
REMARK  192  A    between atoms: _497  and  _500
REMARK  193  A    between atoms: _500  and  _501
REMARK  194  A    between atoms: _511  and  _513
REMARK  195  A    between atoms: _513  and  _514
REMARK  196  A    between atoms: _513  and  _516
REMARK  197  A    between atoms: _516  and  _517
REMARK  198  A    between atoms: _520  and  _522
REMARK  199  A    between atoms: _522  and  _523
REMARK  200  A    between atoms: _522  and  _525
REMARK  201  A    between atoms: _525  and  _526
REMARK  202  A    between atoms: _526  and  _527
REMARK  203  A    between atoms: _530  and  _532
REMARK  204  A    between atoms: _532  and  _533
REMARK  205  A    between atoms: _532  and  _535
REMARK  206  A    between atoms: _535  and  _536
REMARK  207  A    between atoms: _539  and  _541
REMARK  208  A    between atoms: _541  and  _542
REMARK  209  A    between atoms: _541  and  _544
REMARK  210  A    between atoms: _544  and  _545
REMARK  211  A    between atoms: _545  and  _546
REMARK  212  A    between atoms: _546  and  _547
REMARK  213  A    between atoms: _547  and  _548
REMARK  214  A    between atoms: _552  and  _554
REMARK  215  A    between atoms: _554  and  _555
REMARK  216  A    between atoms: _554  and  _557
REMARK  217  A    between atoms: _557  and  _558
REMARK  218  A    between atoms: _558  and  _559
REMARK  219  A    between atoms: _562  and  _564
REMARK  220  A    between atoms: _564  and  _565
REMARK  221  A    between atoms: _564  and  _567
REMARK  222  A    between atoms: _567  and  _568
REMARK  223  A    between atoms: _574  and  _576
REMARK  224  A    between atoms: _576  and  _577
REMARK  225  A    between atoms: _576  and  _579
REMARK  226  A    between atoms: _579  and  _580
REMARK  227  A    between atoms: _586  and  _588
REMARK  228  A    between atoms: _588  and  _589
REMARK  229  A    between atoms: _588  and  _591
REMARK  230  A    between atoms: _591  and  _592
REMARK  231  A    between atoms: _592  and  _593
REMARK  232  A    between atoms: _596  and  _598
REMARK  233  A    between atoms: _598  and  _599
REMARK  234  A    between atoms: _598  and  _601
REMARK  235  A    between atoms: _604  and  _606
REMARK  236  A    between atoms: _606  and  _607
REMARK  237  A    between atoms: _610  and  _612
REMARK  238  A    between atoms: _612  and  _613
REMARK  239  A    between atoms: _612  and  _615
REMARK  240  A    between atoms: _615  and  _616
REMARK  241  A    between atoms: _619  and  _621
REMARK  242  A    between atoms: _621  and  _622
REMARK  243  A    between atoms: _621  and  _624
REMARK  244  A    between atoms: _627  and  _629
REMARK  245  A    between atoms: _629  and  _630
REMARK  246  A    between atoms: _629  and  _632
REMARK  247  A    between atoms: _632  and  _633
REMARK                            x       y       z     vdW  Elec       q    Type
REMARK                         _______ _______ _______ _____ _____    ______ ____
ROOT
ATOM      1  O   HOH     1      23.507  11.373  10.803  0.00  0.00    +0.000 OA
ENDROOT
TORSDOF 0
REMARK  Name = ../refined-set-2016/4x5y/4x5y_pocket.pdb
REMARK  247 active torsions:
REMARK  status: ('A' for Active; 'I' for Inactive)
REMARK    1  A    between atoms: _1  and  _3
REMARK    2  A    between atoms: _3  and  _4
REMARK    3  A    between atoms: _3  and  _6
REMARK    4  A    between atoms: _6  and  _7
REMARK    5  A    between atoms: _10  and  _12
REMARK    6  A    between atoms: _12  and  _13
REMARK    7  A    between atoms: _12  and  _15
REMARK    8  A    between atoms: _15  and  _16
REMARK    9  A    between atoms: _18  and  _20
REMARK   10  A    between atoms: _20  and  _21
REMARK   11  A    between atoms: _20  and  _23
REMARK   12  A    between atoms: _23  and  _24
REMARK   13  A    between atoms: _26  and  _28
REMARK   14  A    between atoms: _28  and  _29
REMARK   15  A    between atoms: _31  and  _33
REMARK   16  A    between atoms: _33  and  _34
REMARK   17  A    between atoms: _37  and  _39
REMARK   18  A    between atoms: _39  and  _40
REMARK   19  A    between atoms: _39  and  _42
REMARK   20  A    between atoms: _42  and  _43
REMARK   21  A    between atoms: _49  and  _51
REMARK   22  A    between atoms: _51  and  _52
REMARK   23  A    between atoms: _51  and  _54
REMARK   24  A    between atoms: _54  and  _55
REMARK   25  A    between atoms: _58  and  _60
REMARK   26  A    between atoms: _60  and  _61
REMARK   27  A    between atoms: _64  and  _66
REMARK   28  A    between atoms: _66  and  _67
REMARK   29  A    between atoms: _66  and  _69
REMARK   30  A    between atoms: _69  and  _70
REMARK   31  A    between atoms: _73  and  _75
REMARK   32  A    between atoms: _75  and  _76
REMARK   33  A    between atoms: _75  and  _78
REMARK   34  A    between atoms: _78  and  _79
REMARK   35  A    between atoms: _81  and  _83
REMARK   36  A    between atoms: _83  and  _84
REMARK   37  A    between atoms: _83  and  _86
REMARK   38  A    between atoms: _86  and  _87
REMARK   39  A    between atoms: _87  and  _88
REMARK   40  A    between atoms: _91  and  _93
REMARK   41  A    between atoms: _93  and  _94
REMARK   42  A    between atoms: _93  and  _96
REMARK   43  A    between atoms: _96  and  _97
REMARK   44  A    between atoms: _100  and  _102
REMARK   45  A    between atoms: _102  and  _103
REMARK   46  A    between atoms: _102  and  _105
REMARK   47  A    between atoms: _105  and  _106
REMARK   48  A    between atoms: _111  and  _113
REMARK   49  A    between atoms: _113  and  _114
REMARK   50  A    between atoms: _117  and  _119
REMARK   51  A    between atoms: _119  and  _120
REMARK   52  A    between atoms: _119  and  _122
REMARK   53  A    between atoms: _122  and  _123
REMARK   54  A    between atoms: _133  and  _135
REMARK   55  A    between atoms: _135  and  _136
REMARK   56  A    between atoms: _135  and  _138
REMARK   57  A    between atoms: _138  and  _139
REMARK   58  A    between atoms: _142  and  _144
REMARK   59  A    between atoms: _144  and  _145
REMARK   60  A    between atoms: _144  and  _147
REMARK   61  A    between atoms: _147  and  _148
REMARK   62  A    between atoms: _158  and  _160
REMARK   63  A    between atoms: _160  and  _161
REMARK   64  A    between atoms: _160  and  _163
REMARK   65  A    between atoms: _163  and  _164
REMARK   66  A    between atoms: _169  and  _171
REMARK   67  A    between atoms: _171  and  _172
REMARK   68  A    between atoms: _174  and  _176
REMARK   69  A    between atoms: _176  and  _177
REMARK   70  A    between atoms: _176  and  _179
REMARK   71  A    between atoms: _179  and  _180
REMARK   72  A    between atoms: _190  and  _192
REMARK   73  A    between atoms: _192  and  _193
REMARK   74  A    between atoms: _192  and  _195
REMARK   75  A    between atoms: _195  and  _196
REMARK   76  A    between atoms: _199  and  _201
REMARK   77  A    between atoms: _201  and  _202
REMARK   78  A    between atoms: _201  and  _204
REMARK   79  A    between atoms: _204  and  _205
REMARK   80  A    between atoms: _205  and  _206
REMARK   81  A    between atoms: _208  and  _210
REMARK   82  A    between atoms: _210  and  _211
REMARK   83  A    between atoms: _210  and  _213
REMARK   84  A    between atoms: _215  and  _217
REMARK   85  A    between atoms: _217  and  _218
REMARK   86  A    between atoms: _221  and  _223
REMARK   87  A    between atoms: _223  and  _224
REMARK   88  A    between atoms: _223  and  _226
REMARK   89  A    between atoms: _226  and  _227
REMARK   90  A    between atoms: _233  and  _235
REMARK   91  A    between atoms: _235  and  _236
REMARK   92  A    between atoms: _235  and  _238
REMARK   93  A    between atoms: _238  and  _239
REMARK   94  A    between atoms: _239  and  _240
REMARK   95  A    between atoms: _242  and  _244
REMARK   96  A    between atoms: _244  and  _245
REMARK   97  A    between atoms: _244  and  _247
REMARK   98  A    between atoms: _250  and  _252
REMARK   99  A    between atoms: _252  and  _253
REMARK  100  A    between atoms: _252  and  _255
REMARK  101  A    between atoms: _257  and  _259
REMARK  102  A    between atoms: _259  and  _260
REMARK  103  A    between atoms: _263  and  _265
REMARK  104  A    between atoms: _265  and  _266
REMARK  105  A    between atoms: _265  and  _268
REMARK  106  A    between atoms: _268  and  _269
REMARK  107  A    between atoms: _274  and  _275
REMARK  108  A    between atoms: _278  and  _279
REMARK  109  A    between atoms: _284  and  _286
REMARK  110  A    between atoms: _286  and  _287
REMARK  111  A    between atoms: _286  and  _289
REMARK  112  A    between atoms: _289  and  _290
REMARK  113  A    between atoms: _290  and  _291
REMARK  114  A    between atoms: _293  and  _295
REMARK  115  A    between atoms: _295  and  _296
REMARK  116  A    between atoms: _299  and  _301
REMARK  117  A    between atoms: _301  and  _302
REMARK  118  A    between atoms: _301  and  _304
REMARK  119  A    between atoms: _304  and  _305
REMARK  120  A    between atoms: _308  and  _310
REMARK  121  A    between atoms: _310  and  _311
REMARK  122  A    between atoms: _313  and  _315
REMARK  123  A    between atoms: _315  and  _316
REMARK  124  A    between atoms: _315  and  _318
REMARK  125  A    between atoms: _318  and  _319
REMARK  126  A    between atoms: _324  and  _326
REMARK  127  A    between atoms: _326  and  _327
REMARK  128  A    between atoms: _326  and  _329
REMARK  129  A    between atoms: _329  and  _330
REMARK  130  A    between atoms: _333  and  _335
REMARK  131  A    between atoms: _335  and  _336
REMARK  132  A    between atoms: _335  and  _338
REMARK  133  A    between atoms: _338  and  _339
REMARK  134  A    between atoms: _344  and  _345
REMARK  135  A    between atoms: _347  and  _349
REMARK  136  A    between atoms: _349  and  _350
REMARK  137  A    between atoms: _349  and  _352
REMARK  138  A    between atoms: _352  and  _353
REMARK  139  A    between atoms: _356  and  _358
REMARK  140  A    between atoms: _358  and  _359
REMARK  141  A    between atoms: _358  and  _361
REMARK  142  A    between atoms: _361  and  _362
REMARK  143  A    between atoms: _367  and  _368
REMARK  144  A    between atoms: _371  and  _372
REMARK  145  A    between atoms: _377  and  _379
REMARK  146  A    between atoms: _379  and  _380
REMARK  147  A    between atoms: _379  and  _382
REMARK  148  A    between atoms: _382  and  _383
REMARK  149  A    between atoms: _388  and  _389
REMARK  150  A    between atoms: _391  and  _393
REMARK  151  A    between atoms: _393  and  _394
REMARK  152  A    between atoms: _393  and  _396
REMARK  153  A    between atoms: _396  and  _397
REMARK  154  A    between atoms: _397  and  _398
REMARK  155  A    between atoms: _400  and  _402
REMARK  156  A    between atoms: _402  and  _403
REMARK  157  A    between atoms: _402  and  _405
REMARK  158  A    between atoms: _405  and  _406
REMARK  159  A    between atoms: _411  and  _412
REMARK  160  A    between atoms: _414  and  _416
REMARK  161  A    between atoms: _416  and  _417
REMARK  162  A    between atoms: _416  and  _419
REMARK  163  A    between atoms: _419  and  _420
REMARK  164  A    between atoms: _423  and  _425
REMARK  165  A    between atoms: _425  and  _426
REMARK  166  A    between atoms: _429  and  _431
REMARK  167  A    between atoms: _431  and  _432
REMARK  168  A    between atoms: _434  and  _436
REMARK  169  A    between atoms: _436  and  _437
REMARK  170  A    between atoms: _436  and  _439
REMARK  171  A    between atoms: _439  and  _440
REMARK  172  A    between atoms: _445  and  _446
REMARK  173  A    between atoms: _448  and  _450
REMARK  174  A    between atoms: _450  and  _451
REMARK  175  A    between atoms: _450  and  _453
REMARK  176  A    between atoms: _453  and  _454
REMARK  177  A    between atoms: _459  and  _461
REMARK  178  A    between atoms: _461  and  _462
REMARK  179  A    between atoms: _461  and  _464
REMARK  180  A    between atoms: _466  and  _468
REMARK  181  A    between atoms: _468  and  _469
REMARK  182  A    between atoms: _468  and  _471
REMARK  183  A    between atoms: _471  and  _472
REMARK  184  A    between atoms: _472  and  _473
REMARK  185  A    between atoms: _473  and  _474
REMARK  186  A    between atoms: _483  and  _485
REMARK  187  A    between atoms: _485  and  _486
REMARK  188  A    between atoms: _489  and  _491
REMARK  189  A    between atoms: _491  and  _492
REMARK  190  A    between atoms: _495  and  _497
REMARK  191  A    between atoms: _497  and  _498
REMARK  192  A    between atoms: _497  and  _500
REMARK  193  A    between atoms: _500  and  _501
REMARK  194  A    between atoms: _511  and  _513
REMARK  195  A    between atoms: _513  and  _514
REMARK  196  A    between atoms: _513  and  _516
REMARK  197  A    between atoms: _516  and  _517
REMARK  198  A    between atoms: _520  and  _522
REMARK  199  A    between atoms: _522  and  _523
REMARK  200  A    between atoms: _522  and  _525
REMARK  201  A    between atoms: _525  and  _526
REMARK  202  A    between atoms: _526  and  _527
REMARK  203  A    between atoms: _530  and  _532
REMARK  204  A    between atoms: _532  and  _533
REMARK  205  A    between atoms: _532  and  _535
REMARK  206  A    between atoms: _535  and  _536
REMARK  207  A    between atoms: _539  and  _541
REMARK  208  A    between atoms: _541  and  _542
REMARK  209  A    between atoms: _541  and  _544
REMARK  210  A    between atoms: _544  and  _545
REMARK  211  A    between atoms: _545  and  _546
REMARK  212  A    between atoms: _546  and  _547
REMARK  213  A    between atoms: _547  and  _548
REMARK  214  A    between atoms: _552  and  _554
REMARK  215  A    between atoms: _554  and  _555
REMARK  216  A    between atoms: _554  and  _557
REMARK  217  A    between atoms: _557  and  _558
REMARK  218  A    between atoms: _558  and  _559
REMARK  219  A    between atoms: _562  and  _564
REMARK  220  A    between atoms: _564  and  _565
REMARK  221  A    between atoms: _564  and  _567
REMARK  222  A    between atoms: _567  and  _568
REMARK  223  A    between atoms: _574  and  _576
REMARK  224  A    between atoms: _576  and  _577
REMARK  225  A    between atoms: _576  and  _579
REMARK  226  A    between atoms: _579  and  _580
REMARK  227  A    between atoms: _586  and  _588
REMARK  228  A    between atoms: _588  and  _589
REMARK  229  A    between atoms: _588  and  _591
REMARK  230  A    between atoms: _591  and  _592
REMARK  231  A    between atoms: _592  and  _593
REMARK  232  A    between atoms: _596  and  _598
REMARK  233  A    between atoms: _598  and  _599
REMARK  234  A    between atoms: _598  and  _601
REMARK  235  A    between atoms: _604  and  _606
REMARK  236  A    between atoms: _606  and  _607
REMARK  237  A    between atoms: _610  and  _612
REMARK  238  A    between atoms: _612  and  _613
REMARK  239  A    between atoms: _612  and  _615
REMARK  240  A    between atoms: _615  and  _616
REMARK  241  A    between atoms: _619  and  _621
REMARK  242  A    between atoms: _621  and  _622
REMARK  243  A    between atoms: _621  and  _624
REMARK  244  A    between atoms: _627  and  _629
REMARK  245  A    between atoms: _629  and  _630
REMARK  246  A    between atoms: _629  and  _632
REMARK  247  A    between atoms: _632  and  _633
REMARK                            x       y       z     vdW  Elec       q    Type
REMARK                         _______ _______ _______ _____ _____    ______ ____
ROOT
ATOM      1  O   HOH     1      22.494  13.955  11.801  0.00  0.00    +0.000 OA
ENDROOT
TORSDOF 0
REMARK  Name = ../refined-set-2016/4x5y/4x5y_pocket.pdb
REMARK  247 active torsions:
REMARK  status: ('A' for Active; 'I' for Inactive)
REMARK    1  A    between atoms: _1  and  _3
REMARK    2  A    between atoms: _3  and  _4
REMARK    3  A    between atoms: _3  and  _6
REMARK    4  A    between atoms: _6  and  _7
REMARK    5  A    between atoms: _10  and  _12
REMARK    6  A    between atoms: _12  and  _13
REMARK    7  A    between atoms: _12  and  _15
REMARK    8  A    between atoms: _15  and  _16
REMARK    9  A    between atoms: _18  and  _20
REMARK   10  A    between atoms: _20  and  _21
REMARK   11  A    between atoms: _20  and  _23
REMARK   12  A    between atoms: _23  and  _24
REMARK   13  A    between atoms: _26  and  _28
REMARK   14  A    between atoms: _28  and  _29
REMARK   15  A    between atoms: _31  and  _33
REMARK   16  A    between atoms: _33  and  _34
REMARK   17  A    between atoms: _37  and  _39
REMARK   18  A    between atoms: _39  and  _40
REMARK   19  A    between atoms: _39  and  _42
REMARK   20  A    between atoms: _42  and  _43
REMARK   21  A    between atoms: _49  and  _51
REMARK   22  A    between atoms: _51  and  _52
REMARK   23  A    between atoms: _51  and  _54
REMARK   24  A    between atoms: _54  and  _55
REMARK   25  A    between atoms: _58  and  _60
REMARK   26  A    between atoms: _60  and  _61
REMARK   27  A    between atoms: _64  and  _66
REMARK   28  A    between atoms: _66  and  _67
REMARK   29  A    between atoms: _66  and  _69
REMARK   30  A    between atoms: _69  and  _70
REMARK   31  A    between atoms: _73  and  _75
REMARK   32  A    between atoms: _75  and  _76
REMARK   33  A    between atoms: _75  and  _78
REMARK   34  A    between atoms: _78  and  _79
REMARK   35  A    between atoms: _81  and  _83
REMARK   36  A    between atoms: _83  and  _84
REMARK   37  A    between atoms: _83  and  _86
REMARK   38  A    between atoms: _86  and  _87
REMARK   39  A    between atoms: _87  and  _88
REMARK   40  A    between atoms: _91  and  _93
REMARK   41  A    between atoms: _93  and  _94
REMARK   42  A    between atoms: _93  and  _96
REMARK   43  A    between atoms: _96  and  _97
REMARK   44  A    between atoms: _100  and  _102
REMARK   45  A    between atoms: _102  and  _103
REMARK   46  A    between atoms: _102  and  _105
REMARK   47  A    between atoms: _105  and  _106
REMARK   48  A    between atoms: _111  and  _113
REMARK   49  A    between atoms: _113  and  _114
REMARK   50  A    between atoms: _117  and  _119
REMARK   51  A    between atoms: _119  and  _120
REMARK   52  A    between atoms: _119  and  _122
REMARK   53  A    between atoms: _122  and  _123
REMARK   54  A    between atoms: _133  and  _135
REMARK   55  A    between atoms: _135  and  _136
REMARK   56  A    between atoms: _135  and  _138
REMARK   57  A    between atoms: _138  and  _139
REMARK   58  A    between atoms: _142  and  _144
REMARK   59  A    between atoms: _144  and  _145
REMARK   60  A    between atoms: _144  and  _147
REMARK   61  A    between atoms: _147  and  _148
REMARK   62  A    between atoms: _158  and  _160
REMARK   63  A    between atoms: _160  and  _161
REMARK   64  A    between atoms: _160  and  _163
REMARK   65  A    between atoms: _163  and  _164
REMARK   66  A    between atoms: _169  and  _171
REMARK   67  A    between atoms: _171  and  _172
REMARK   68  A    between atoms: _174  and  _176
REMARK   69  A    between atoms: _176  and  _177
REMARK   70  A    between atoms: _176  and  _179
REMARK   71  A    between atoms: _179  and  _180
REMARK   72  A    between atoms: _190  and  _192
REMARK   73  A    between atoms: _192  and  _193
REMARK   74  A    between atoms: _192  and  _195
REMARK   75  A    between atoms: _195  and  _196
REMARK   76  A    between atoms: _199  and  _201
REMARK   77  A    between atoms: _201  and  _202
REMARK   78  A    between atoms: _201  and  _204
REMARK   79  A    between atoms: _204  and  _205
REMARK   80  A    between atoms: _205  and  _206
REMARK   81  A    between atoms: _208  and  _210
REMARK   82  A    between atoms: _210  and  _211
REMARK   83  A    between atoms: _210  and  _213
REMARK   84  A    between atoms: _215  and  _217
REMARK   85  A    between atoms: _217  and  _218
REMARK   86  A    between atoms: _221  and  _223
REMARK   87  A    between atoms: _223  and  _224
REMARK   88  A    between atoms: _223  and  _226
REMARK   89  A    between atoms: _226  and  _227
REMARK   90  A    between atoms: _233  and  _235
REMARK   91  A    between atoms: _235  and  _236
REMARK   92  A    between atoms: _235  and  _238
REMARK   93  A    between atoms: _238  and  _239
REMARK   94  A    between atoms: _239  and  _240
REMARK   95  A    between atoms: _242  and  _244
REMARK   96  A    between atoms: _244  and  _245
REMARK   97  A    between atoms: _244  and  _247
REMARK   98  A    between atoms: _250  and  _252
REMARK   99  A    between atoms: _252  and  _253
REMARK  100  A    between atoms: _252  and  _255
REMARK  101  A    between atoms: _257  and  _259
REMARK  102  A    between atoms: _259  and  _260
REMARK  103  A    between atoms: _263  and  _265
REMARK  104  A    between atoms: _265  and  _266
REMARK  105  A    between atoms: _265  and  _268
REMARK  106  A    between atoms: _268  and  _269
REMARK  107  A    between atoms: _274  and  _275
REMARK  108  A    between atoms: _278  and  _279
REMARK  109  A    between atoms: _284  and  _286
REMARK  110  A    between atoms: _286  and  _287
REMARK  111  A    between atoms: _286  and  _289
REMARK  112  A    between atoms: _289  and  _290
REMARK  113  A    between atoms: _290  and  _291
REMARK  114  A    between atoms: _293  and  _295
REMARK  115  A    between atoms: _295  and  _296
REMARK  116  A    between atoms: _299  and  _301
REMARK  117  A    between atoms: _301  and  _302
REMARK  118  A    between atoms: _301  and  _304
REMARK  119  A    between atoms: _304  and  _305
REMARK  120  A    between atoms: _308  and  _310
REMARK  121  A    between atoms: _310  and  _311
REMARK  122  A    between atoms: _313  and  _315
REMARK  123  A    between atoms: _315  and  _316
REMARK  124  A    between atoms: _315  and  _318
REMARK  125  A    between atoms: _318  and  _319
REMARK  126  A    between atoms: _324  and  _326
REMARK  127  A    between atoms: _326  and  _327
REMARK  128  A    between atoms: _326  and  _329
REMARK  129  A    between atoms: _329  and  _330
REMARK  130  A    between atoms: _333  and  _335
REMARK  131  A    between atoms: _335  and  _336
REMARK  132  A    between atoms: _335  and  _338
REMARK  133  A    between atoms: _338  and  _339
REMARK  134  A    between atoms: _344  and  _345
REMARK  135  A    between atoms: _347  and  _349
REMARK  136  A    between atoms: _349  and  _350
REMARK  137  A    between atoms: _349  and  _352
REMARK  138  A    between atoms: _352  and  _353
REMARK  139  A    between atoms: _356  and  _358
REMARK  140  A    between atoms: _358  and  _359
REMARK  141  A    between atoms: _358  and  _361
REMARK  142  A    between atoms: _361  and  _362
REMARK  143  A    between atoms: _367  and  _368
REMARK  144  A    between atoms: _371  and  _372
REMARK  145  A    between atoms: _377  and  _379
REMARK  146  A    between atoms: _379  and  _380
REMARK  147  A    between atoms: _379  and  _382
REMARK  148  A    between atoms: _382  and  _383
REMARK  149  A    between atoms: _388  and  _389
REMARK  150  A    between atoms: _391  and  _393
REMARK  151  A    between atoms: _393  and  _394
REMARK  152  A    between atoms: _393  and  _396
REMARK  153  A    between atoms: _396  and  _397
REMARK  154  A    between atoms: _397  and  _398
REMARK  155  A    between atoms: _400  and  _402
REMARK  156  A    between atoms: _402  and  _403
REMARK  157  A    between atoms: _402  and  _405
REMARK  158  A    between atoms: _405  and  _406
REMARK  159  A    between atoms: _411  and  _412
REMARK  160  A    between atoms: _414  and  _416
REMARK  161  A    between atoms: _416  and  _417
REMARK  162  A    between atoms: _416  and  _419
REMARK  163  A    between atoms: _419  and  _420
REMARK  164  A    between atoms: _423  and  _425
REMARK  165  A    between atoms: _425  and  _426
REMARK  166  A    between atoms: _429  and  _431
REMARK  167  A    between atoms: _431  and  _432
REMARK  168  A    between atoms: _434  and  _436
REMARK  169  A    between atoms: _436  and  _437
REMARK  170  A    between atoms: _436  and  _439
REMARK  171  A    between atoms: _439  and  _440
REMARK  172  A    between atoms: _445  and  _446
REMARK  173  A    between atoms: _448  and  _450
REMARK  174  A    between atoms: _450  and  _451
REMARK  175  A    between atoms: _450  and  _453
REMARK  176  A    between atoms: _453  and  _454
REMARK  177  A    between atoms: _459  and  _461
REMARK  178  A    between atoms: _461  and  _462
REMARK  179  A    between atoms: _461  and  _464
REMARK  180  A    between atoms: _466  and  _468
REMARK  181  A    between atoms: _468  and  _469
REMARK  182  A    between atoms: _468  and  _471
REMARK  183  A    between atoms: _471  and  _472
REMARK  184  A    between atoms: _472  and  _473
REMARK  185  A    between atoms: _473  and  _474
REMARK  186  A    between atoms: _483  and  _485
REMARK  187  A    between atoms: _485  and  _486
REMARK  188  A    between atoms: _489  and  _491
REMARK  189  A    between atoms: _491  and  _492
REMARK  190  A    between atoms: _495  and  _497
REMARK  191  A    between atoms: _497  and  _498
REMARK  192  A    between atoms: _497  and  _500
REMARK  193  A    between atoms: _500  and  _501
REMARK  194  A    between atoms: _511  and  _513
REMARK  195  A    between atoms: _513  and  _514
REMARK  196  A    between atoms: _513  and  _516
REMARK  197  A    between atoms: _516  and  _517
REMARK  198  A    between atoms: _520  and  _522
REMARK  199  A    between atoms: _522  and  _523
REMARK  200  A    between atoms: _522  and  _525
REMARK  201  A    between atoms: _525  and  _526
REMARK  202  A    between atoms: _526  and  _527
REMARK  203  A    between atoms: _530  and  _532
REMARK  204  A    between atoms: _532  and  _533
REMARK  205  A    between atoms: _532  and  _535
REMARK  206  A    between atoms: _535  and  _536
REMARK  207  A    between atoms: _539  and  _541
REMARK  208  A    between atoms: _541  and  _542
REMARK  209  A    between atoms: _541  and  _544
REMARK  210  A    between atoms: _544  and  _545
REMARK  211  A    between atoms: _545  and  _546
REMARK  212  A    between atoms: _546  and  _547
REMARK  213  A    between atoms: _547  and  _548
REMARK  214  A    between atoms: _552  and  _554
REMARK  215  A    between atoms: _554  and  _555
REMARK  216  A    between atoms: _554  and  _557
REMARK  217  A    between atoms: _557  and  _558
REMARK  218  A    between atoms: _558  and  _559
REMARK  219  A    between atoms: _562  and  _564
REMARK  220  A    between atoms: _564  and  _565
REMARK  221  A    between atoms: _564  and  _567
REMARK  222  A    between atoms: _567  and  _568
REMARK  223  A    between atoms: _574  and  _576
REMARK  224  A    between atoms: _576  and  _577
REMARK  225  A    between atoms: _576  and  _579
REMARK  226  A    between atoms: _579  and  _580
REMARK  227  A    between atoms: _586  and  _588
REMARK  228  A    between atoms: _588  and  _589
REMARK  229  A    between atoms: _588  and  _591
REMARK  230  A    between atoms: _591  and  _592
REMARK  231  A    between atoms: _592  and  _593
REMARK  232  A    between atoms: _596  and  _598
REMARK  233  A    between atoms: _598  and  _599
REMARK  234  A    between atoms: _598  and  _601
REMARK  235  A    between atoms: _604  and  _606
REMARK  236  A    between atoms: _606  and  _607
REMARK  237  A    between atoms: _610  and  _612
REMARK  238  A    between atoms: _612  and  _613
REMARK  239  A    between atoms: _612  and  _615
REMARK  240  A    between atoms: _615  and  _616
REMARK  241  A    between atoms: _619  and  _621
REMARK  242  A    between atoms: _621  and  _622
REMARK  243  A    between atoms: _621  and  _624
REMARK  244  A    between atoms: _627  and  _629
REMARK  245  A    between atoms: _629  and  _630
REMARK  246  A    between atoms: _629  and  _632
REMARK  247  A    between atoms: _632  and  _633
REMARK                            x       y       z     vdW  Elec       q    Type
REMARK                         _______ _______ _______ _____ _____    ______ ____
ROOT
ATOM      1  O   HOH     1       6.212  10.965   4.196  0.00  0.00    +0.000 OA
ENDROOT
TORSDOF 0
REMARK  Name = ../refined-set-2016/4x5y/4x5y_pocket.pdb
REMARK  247 active torsions:
REMARK  status: ('A' for Active; 'I' for Inactive)
REMARK    1  A    between atoms: _1  and  _3
REMARK    2  A    between atoms: _3  and  _4
REMARK    3  A    between atoms: _3  and  _6
REMARK    4  A    between atoms: _6  and  _7
REMARK    5  A    between atoms: _10  and  _12
REMARK    6  A    between atoms: _12  and  _13
REMARK    7  A    between atoms: _12  and  _15
REMARK    8  A    between atoms: _15  and  _16
REMARK    9  A    between atoms: _18  and  _20
REMARK   10  A    between atoms: _20  and  _21
REMARK   11  A    between atoms: _20  and  _23
REMARK   12  A    between atoms: _23  and  _24
REMARK   13  A    between atoms: _26  and  _28
REMARK   14  A    between atoms: _28  and  _29
REMARK   15  A    between atoms: _31  and  _33
REMARK   16  A    between atoms: _33  and  _34
REMARK   17  A    between atoms: _37  and  _39
REMARK   18  A    between atoms: _39  and  _40
REMARK   19  A    between atoms: _39  and  _42
REMARK   20  A    between atoms: _42  and  _43
REMARK   21  A    between atoms: _49  and  _51
REMARK   22  A    between atoms: _51  and  _52
REMARK   23  A    between atoms: _51  and  _54
REMARK   24  A    between atoms: _54  and  _55
REMARK   25  A    between atoms: _58  and  _60
REMARK   26  A    between atoms: _60  and  _61
REMARK   27  A    between atoms: _64  and  _66
REMARK   28  A    between atoms: _66  and  _67
REMARK   29  A    between atoms: _66  and  _69
REMARK   30  A    between atoms: _69  and  _70
REMARK   31  A    between atoms: _73  and  _75
REMARK   32  A    between atoms: _75  and  _76
REMARK   33  A    between atoms: _75  and  _78
REMARK   34  A    between atoms: _78  and  _79
REMARK   35  A    between atoms: _81  and  _83
REMARK   36  A    between atoms: _83  and  _84
REMARK   37  A    between atoms: _83  and  _86
REMARK   38  A    between atoms: _86  and  _87
REMARK   39  A    between atoms: _87  and  _88
REMARK   40  A    between atoms: _91  and  _93
REMARK   41  A    between atoms: _93  and  _94
REMARK   42  A    between atoms: _93  and  _96
REMARK   43  A    between atoms: _96  and  _97
REMARK   44  A    between atoms: _100  and  _102
REMARK   45  A    between atoms: _102  and  _103
REMARK   46  A    between atoms: _102  and  _105
REMARK   47  A    between atoms: _105  and  _106
REMARK   48  A    between atoms: _111  and  _113
REMARK   49  A    between atoms: _113  and  _114
REMARK   50  A    between atoms: _117  and  _119
REMARK   51  A    between atoms: _119  and  _120
REMARK   52  A    between atoms: _119  and  _122
REMARK   53  A    between atoms: _122  and  _123
REMARK   54  A    between atoms: _133  and  _135
REMARK   55  A    between atoms: _135  and  _136
REMARK   56  A    between atoms: _135  and  _138
REMARK   57  A    between atoms: _138  and  _139
REMARK   58  A    between atoms: _142  and  _144
REMARK   59  A    between atoms: _144  and  _145
REMARK   60  A    between atoms: _144  and  _147
REMARK   61  A    between atoms: _147  and  _148
REMARK   62  A    between atoms: _158  and  _160
REMARK   63  A    between atoms: _160  and  _161
REMARK   64  A    between atoms: _160  and  _163
REMARK   65  A    between atoms: _163  and  _164
REMARK   66  A    between atoms: _169  and  _171
REMARK   67  A    between atoms: _171  and  _172
REMARK   68  A    between atoms: _174  and  _176
REMARK   69  A    between atoms: _176  and  _177
REMARK   70  A    between atoms: _176  and  _179
REMARK   71  A    between atoms: _179  and  _180
REMARK   72  A    between atoms: _190  and  _192
REMARK   73  A    between atoms: _192  and  _193
REMARK   74  A    between atoms: _192  and  _195
REMARK   75  A    between atoms: _195  and  _196
REMARK   76  A    between atoms: _199  and  _201
REMARK   77  A    between atoms: _201  and  _202
REMARK   78  A    between atoms: _201  and  _204
REMARK   79  A    between atoms: _204  and  _205
REMARK   80  A    between atoms: _205  and  _206
REMARK   81  A    between atoms: _208  and  _210
REMARK   82  A    between atoms: _210  and  _211
REMARK   83  A    between atoms: _210  and  _213
REMARK   84  A    between atoms: _215  and  _217
REMARK   85  A    between atoms: _217  and  _218
REMARK   86  A    between atoms: _221  and  _223
REMARK   87  A    between atoms: _223  and  _224
REMARK   88  A    between atoms: _223  and  _226
REMARK   89  A    between atoms: _226  and  _227
REMARK   90  A    between atoms: _233  and  _235
REMARK   91  A    between atoms: _235  and  _236
REMARK   92  A    between atoms: _235  and  _238
REMARK   93  A    between atoms: _238  and  _239
REMARK   94  A    between atoms: _239  and  _240
REMARK   95  A    between atoms: _242  and  _244
REMARK   96  A    between atoms: _244  and  _245
REMARK   97  A    between atoms: _244  and  _247
REMARK   98  A    between atoms: _250  and  _252
REMARK   99  A    between atoms: _252  and  _253
REMARK  100  A    between atoms: _252  and  _255
REMARK  101  A    between atoms: _257  and  _259
REMARK  102  A    between atoms: _259  and  _260
REMARK  103  A    between atoms: _263  and  _265
REMARK  104  A    between atoms: _265  and  _266
REMARK  105  A    between atoms: _265  and  _268
REMARK  106  A    between atoms: _268  and  _269
REMARK  107  A    between atoms: _274  and  _275
REMARK  108  A    between atoms: _278  and  _279
REMARK  109  A    between atoms: _284  and  _286
REMARK  110  A    between atoms: _286  and  _287
REMARK  111  A    between atoms: _286  and  _289
REMARK  112  A    between atoms: _289  and  _290
REMARK  113  A    between atoms: _290  and  _291
REMARK  114  A    between atoms: _293  and  _295
REMARK  115  A    between atoms: _295  and  _296
REMARK  116  A    between atoms: _299  and  _301
REMARK  117  A    between atoms: _301  and  _302
REMARK  118  A    between atoms: _301  and  _304
REMARK  119  A    between atoms: _304  and  _305
REMARK  120  A    between atoms: _308  and  _310
REMARK  121  A    between atoms: _310  and  _311
REMARK  122  A    between atoms: _313  and  _315
REMARK  123  A    between atoms: _315  and  _316
REMARK  124  A    between atoms: _315  and  _318
REMARK  125  A    between atoms: _318  and  _319
REMARK  126  A    between atoms: _324  and  _326
REMARK  127  A    between atoms: _326  and  _327
REMARK  128  A    between atoms: _326  and  _329
REMARK  129  A    between atoms: _329  and  _330
REMARK  130  A    between atoms: _333  and  _335
REMARK  131  A    between atoms: _335  and  _336
REMARK  132  A    between atoms: _335  and  _338
REMARK  133  A    between atoms: _338  and  _339
REMARK  134  A    between atoms: _344  and  _345
REMARK  135  A    between atoms: _347  and  _349
REMARK  136  A    between atoms: _349  and  _350
REMARK  137  A    between atoms: _349  and  _352
REMARK  138  A    between atoms: _352  and  _353
REMARK  139  A    between atoms: _356  and  _358
REMARK  140  A    between atoms: _358  and  _359
REMARK  141  A    between atoms: _358  and  _361
REMARK  142  A    between atoms: _361  and  _362
REMARK  143  A    between atoms: _367  and  _368
REMARK  144  A    between atoms: _371  and  _372
REMARK  145  A    between atoms: _377  and  _379
REMARK  146  A    between atoms: _379  and  _380
REMARK  147  A    between atoms: _379  and  _382
REMARK  148  A    between atoms: _382  and  _383
REMARK  149  A    between atoms: _388  and  _389
REMARK  150  A    between atoms: _391  and  _393
REMARK  151  A    between atoms: _393  and  _394
REMARK  152  A    between atoms: _393  and  _396
REMARK  153  A    between atoms: _396  and  _397
REMARK  154  A    between atoms: _397  and  _398
REMARK  155  A    between atoms: _400  and  _402
REMARK  156  A    between atoms: _402  and  _403
REMARK  157  A    between atoms: _402  and  _405
REMARK  158  A    between atoms: _405  and  _406
REMARK  159  A    between atoms: _411  and  _412
REMARK  160  A    between atoms: _414  and  _416
REMARK  161  A    between atoms: _416  and  _417
REMARK  162  A    between atoms: _416  and  _419
REMARK  163  A    between atoms: _419  and  _420
REMARK  164  A    between atoms: _423  and  _425
REMARK  165  A    between atoms: _425  and  _426
REMARK  166  A    between atoms: _429  and  _431
REMARK  167  A    between atoms: _431  and  _432
REMARK  168  A    between atoms: _434  and  _436
REMARK  169  A    between atoms: _436  and  _437
REMARK  170  A    between atoms: _436  and  _439
REMARK  171  A    between atoms: _439  and  _440
REMARK  172  A    between atoms: _445  and  _446
REMARK  173  A    between atoms: _448  and  _450
REMARK  174  A    between atoms: _450  and  _451
REMARK  175  A    between atoms: _450  and  _453
REMARK  176  A    between atoms: _453  and  _454
REMARK  177  A    between atoms: _459  and  _461
REMARK  178  A    between atoms: _461  and  _462
REMARK  179  A    between atoms: _461  and  _464
REMARK  180  A    between atoms: _466  and  _468
REMARK  181  A    between atoms: _468  and  _469
REMARK  182  A    between atoms: _468  and  _471
REMARK  183  A    between atoms: _471  and  _472
REMARK  184  A    between atoms: _472  and  _473
REMARK  185  A    between atoms: _473  and  _474
REMARK  186  A    between atoms: _483  and  _485
REMARK  187  A    between atoms: _485  and  _486
REMARK  188  A    between atoms: _489  and  _491
REMARK  189  A    between atoms: _491  and  _492
REMARK  190  A    between atoms: _495  and  _497
REMARK  191  A    between atoms: _497  and  _498
REMARK  192  A    between atoms: _497  and  _500
REMARK  193  A    between atoms: _500  and  _501
REMARK  194  A    between atoms: _511  and  _513
REMARK  195  A    between atoms: _513  and  _514
REMARK  196  A    between atoms: _513  and  _516
REMARK  197  A    between atoms: _516  and  _517
REMARK  198  A    between atoms: _520  and  _522
REMARK  199  A    between atoms: _522  and  _523
REMARK  200  A    between atoms: _522  and  _525
REMARK  201  A    between atoms: _525  and  _526
REMARK  202  A    between atoms: _526  and  _527
REMARK  203  A    between atoms: _530  and  _532
REMARK  204  A    between atoms: _532  and  _533
REMARK  205  A    between atoms: _532  and  _535
REMARK  206  A    between atoms: _535  and  _536
REMARK  207  A    between atoms: _539  and  _541
REMARK  208  A    between atoms: _541  and  _542
REMARK  209  A    between atoms: _541  and  _544
REMARK  210  A    between atoms: _544  and  _545
REMARK  211  A    between atoms: _545  and  _546
REMARK  212  A    between atoms: _546  and  _547
REMARK  213  A    between atoms: _547  and  _548
REMARK  214  A    between atoms: _552  and  _554
REMARK  215  A    between atoms: _554  and  _555
REMARK  216  A    between atoms: _554  and  _557
REMARK  217  A    between atoms: _557  and  _558
REMARK  218  A    between atoms: _558  and  _559
REMARK  219  A    between atoms: _562  and  _564
REMARK  220  A    between atoms: _564  and  _565
REMARK  221  A    between atoms: _564  and  _567
REMARK  222  A    between atoms: _567  and  _568
REMARK  223  A    between atoms: _574  and  _576
REMARK  224  A    between atoms: _576  and  _577
REMARK  225  A    between atoms: _576  and  _579
REMARK  226  A    between atoms: _579  and  _580
REMARK  227  A    between atoms: _586  and  _588
REMARK  228  A    between atoms: _588  and  _589
REMARK  229  A    between atoms: _588  and  _591
REMARK  230  A    between atoms: _591  and  _592
REMARK  231  A    between atoms: _592  and  _593
REMARK  232  A    between atoms: _596  and  _598
REMARK  233  A    between atoms: _598  and  _599
REMARK  234  A    between atoms: _598  and  _601
REMARK  235  A    between atoms: _604  and  _606
REMARK  236  A    between atoms: _606  and  _607
REMARK  237  A    between atoms: _610  and  _612
REMARK  238  A    between atoms: _612  and  _613
REMARK  239  A    between atoms: _612  and  _615
REMARK  240  A    between atoms: _615  and  _616
REMARK  241  A    between atoms: _619  and  _621
REMARK  242  A    between atoms: _621  and  _622
REMARK  243  A    between atoms: _621  and  _624
REMARK  244  A    between atoms: _627  and  _629
REMARK  245  A    between atoms: _629  and  _630
REMARK  246  A    between atoms: _629  and  _632
REMARK  247  A    between atoms: _632  and  _633
REMARK                            x       y       z     vdW  Elec       q    Type
REMARK                         _______ _______ _______ _____ _____    ______ ____
ROOT
ATOM      1  O   HOH     1       8.675   9.921   5.575  0.00  0.00    +0.000 OA
ENDROOT
TORSDOF 0
REMARK  Name = ../refined-set-2016/4x5y/4x5y_pocket.pdb
REMARK  247 active torsions:
REMARK  status: ('A' for Active; 'I' for Inactive)
REMARK    1  A    between atoms: _1  and  _3
REMARK    2  A    between atoms: _3  and  _4
REMARK    3  A    between atoms: _3  and  _6
REMARK    4  A    between atoms: _6  and  _7
REMARK    5  A    between atoms: _10  and  _12
REMARK    6  A    between atoms: _12  and  _13
REMARK    7  A    between atoms: _12  and  _15
REMARK    8  A    between atoms: _15  and  _16
REMARK    9  A    between atoms: _18  and  _20
REMARK   10  A    between atoms: _20  and  _21
REMARK   11  A    between atoms: _20  and  _23
REMARK   12  A    between atoms: _23  and  _24
REMARK   13  A    between atoms: _26  and  _28
REMARK   14  A    between atoms: _28  and  _29
REMARK   15  A    between atoms: _31  and  _33
REMARK   16  A    between atoms: _33  and  _34
REMARK   17  A    between atoms: _37  and  _39
REMARK   18  A    between atoms: _39  and  _40
REMARK   19  A    between atoms: _39  and  _42
REMARK   20  A    between atoms: _42  and  _43
REMARK   21  A    between atoms: _49  and  _51
REMARK   22  A    between atoms: _51  and  _52
REMARK   23  A    between atoms: _51  and  _54
REMARK   24  A    between atoms: _54  and  _55
REMARK   25  A    between atoms: _58  and  _60
REMARK   26  A    between atoms: _60  and  _61
REMARK   27  A    between atoms: _64  and  _66
REMARK   28  A    between atoms: _66  and  _67
REMARK   29  A    between atoms: _66  and  _69
REMARK   30  A    between atoms: _69  and  _70
REMARK   31  A    between atoms: _73  and  _75
REMARK   32  A    between atoms: _75  and  _76
REMARK   33  A    between atoms: _75  and  _78
REMARK   34  A    between atoms: _78  and  _79
REMARK   35  A    between atoms: _81  and  _83
REMARK   36  A    between atoms: _83  and  _84
REMARK   37  A    between atoms: _83  and  _86
REMARK   38  A    between atoms: _86  and  _87
REMARK   39  A    between atoms: _87  and  _88
REMARK   40  A    between atoms: _91  and  _93
REMARK   41  A    between atoms: _93  and  _94
REMARK   42  A    between atoms: _93  and  _96
REMARK   43  A    between atoms: _96  and  _97
REMARK   44  A    between atoms: _100  and  _102
REMARK   45  A    between atoms: _102  and  _103
REMARK   46  A    between atoms: _102  and  _105
REMARK   47  A    between atoms: _105  and  _106
REMARK   48  A    between atoms: _111  and  _113
REMARK   49  A    between atoms: _113  and  _114
REMARK   50  A    between atoms: _117  and  _119
REMARK   51  A    between atoms: _119  and  _120
REMARK   52  A    between atoms: _119  and  _122
REMARK   53  A    between atoms: _122  and  _123
REMARK   54  A    between atoms: _133  and  _135
REMARK   55  A    between atoms: _135  and  _136
REMARK   56  A    between atoms: _135  and  _138
REMARK   57  A    between atoms: _138  and  _139
REMARK   58  A    between atoms: _142  and  _144
REMARK   59  A    between atoms: _144  and  _145
REMARK   60  A    between atoms: _144  and  _147
REMARK   61  A    between atoms: _147  and  _148
REMARK   62  A    between atoms: _158  and  _160
REMARK   63  A    between atoms: _160  and  _161
REMARK   64  A    between atoms: _160  and  _163
REMARK   65  A    between atoms: _163  and  _164
REMARK   66  A    between atoms: _169  and  _171
REMARK   67  A    between atoms: _171  and  _172
REMARK   68  A    between atoms: _174  and  _176
REMARK   69  A    between atoms: _176  and  _177
REMARK   70  A    between atoms: _176  and  _179
REMARK   71  A    between atoms: _179  and  _180
REMARK   72  A    between atoms: _190  and  _192
REMARK   73  A    between atoms: _192  and  _193
REMARK   74  A    between atoms: _192  and  _195
REMARK   75  A    between atoms: _195  and  _196
REMARK   76  A    between atoms: _199  and  _201
REMARK   77  A    between atoms: _201  and  _202
REMARK   78  A    between atoms: _201  and  _204
REMARK   79  A    between atoms: _204  and  _205
REMARK   80  A    between atoms: _205  and  _206
REMARK   81  A    between atoms: _208  and  _210
REMARK   82  A    between atoms: _210  and  _211
REMARK   83  A    between atoms: _210  and  _213
REMARK   84  A    between atoms: _215  and  _217
REMARK   85  A    between atoms: _217  and  _218
REMARK   86  A    between atoms: _221  and  _223
REMARK   87  A    between atoms: _223  and  _224
REMARK   88  A    between atoms: _223  and  _226
REMARK   89  A    between atoms: _226  and  _227
REMARK   90  A    between atoms: _233  and  _235
REMARK   91  A    between atoms: _235  and  _236
REMARK   92  A    between atoms: _235  and  _238
REMARK   93  A    between atoms: _238  and  _239
REMARK   94  A    between atoms: _239  and  _240
REMARK   95  A    between atoms: _242  and  _244
REMARK   96  A    between atoms: _244  and  _245
REMARK   97  A    between atoms: _244  and  _247
REMARK   98  A    between atoms: _250  and  _252
REMARK   99  A    between atoms: _252  and  _253
REMARK  100  A    between atoms: _252  and  _255
REMARK  101  A    between atoms: _257  and  _259
REMARK  102  A    between atoms: _259  and  _260
REMARK  103  A    between atoms: _263  and  _265
REMARK  104  A    between atoms: _265  and  _266
REMARK  105  A    between atoms: _265  and  _268
REMARK  106  A    between atoms: _268  and  _269
REMARK  107  A    between atoms: _274  and  _275
REMARK  108  A    between atoms: _278  and  _279
REMARK  109  A    between atoms: _284  and  _286
REMARK  110  A    between atoms: _286  and  _287
REMARK  111  A    between atoms: _286  and  _289
REMARK  112  A    between atoms: _289  and  _290
REMARK  113  A    between atoms: _290  and  _291
REMARK  114  A    between atoms: _293  and  _295
REMARK  115  A    between atoms: _295  and  _296
REMARK  116  A    between atoms: _299  and  _301
REMARK  117  A    between atoms: _301  and  _302
REMARK  118  A    between atoms: _301  and  _304
REMARK  119  A    between atoms: _304  and  _305
REMARK  120  A    between atoms: _308  and  _310
REMARK  121  A    between atoms: _310  and  _311
REMARK  122  A    between atoms: _313  and  _315
REMARK  123  A    between atoms: _315  and  _316
REMARK  124  A    between atoms: _315  and  _318
REMARK  125  A    between atoms: _318  and  _319
REMARK  126  A    between atoms: _324  and  _326
REMARK  127  A    between atoms: _326  and  _327
REMARK  128  A    between atoms: _326  and  _329
REMARK  129  A    between atoms: _329  and  _330
REMARK  130  A    between atoms: _333  and  _335
REMARK  131  A    between atoms: _335  and  _336
REMARK  132  A    between atoms: _335  and  _338
REMARK  133  A    between atoms: _338  and  _339
REMARK  134  A    between atoms: _344  and  _345
REMARK  135  A    between atoms: _347  and  _349
REMARK  136  A    between atoms: _349  and  _350
REMARK  137  A    between atoms: _349  and  _352
REMARK  138  A    between atoms: _352  and  _353
REMARK  139  A    between atoms: _356  and  _358
REMARK  140  A    between atoms: _358  and  _359
REMARK  141  A    between atoms: _358  and  _361
REMARK  142  A    between atoms: _361  and  _362
REMARK  143  A    between atoms: _367  and  _368
REMARK  144  A    between atoms: _371  and  _372
REMARK  145  A    between atoms: _377  and  _379
REMARK  146  A    between atoms: _379  and  _380
REMARK  147  A    between atoms: _379  and  _382
REMARK  148  A    between atoms: _382  and  _383
REMARK  149  A    between atoms: _388  and  _389
REMARK  150  A    between atoms: _391  and  _393
REMARK  151  A    between atoms: _393  and  _394
REMARK  152  A    between atoms: _393  and  _396
REMARK  153  A    between atoms: _396  and  _397
REMARK  154  A    between atoms: _397  and  _398
REMARK  155  A    between atoms: _400  and  _402
REMARK  156  A    between atoms: _402  and  _403
REMARK  157  A    between atoms: _402  and  _405
REMARK  158  A    between atoms: _405  and  _406
REMARK  159  A    between atoms: _411  and  _412
REMARK  160  A    between atoms: _414  and  _416
REMARK  161  A    between atoms: _416  and  _417
REMARK  162  A    between atoms: _416  and  _419
REMARK  163  A    between atoms: _419  and  _420
REMARK  164  A    between atoms: _423  and  _425
REMARK  165  A    between atoms: _425  and  _426
REMARK  166  A    between atoms: _429  and  _431
REMARK  167  A    between atoms: _431  and  _432
REMARK  168  A    between atoms: _434  and  _436
REMARK  169  A    between atoms: _436  and  _437
REMARK  170  A    between atoms: _436  and  _439
REMARK  171  A    between atoms: _439  and  _440
REMARK  172  A    between atoms: _445  and  _446
REMARK  173  A    between atoms: _448  and  _450
REMARK  174  A    between atoms: _450  and  _451
REMARK  175  A    between atoms: _450  and  _453
REMARK  176  A    between atoms: _453  and  _454
REMARK  177  A    between atoms: _459  and  _461
REMARK  178  A    between atoms: _461  and  _462
REMARK  179  A    between atoms: _461  and  _464
REMARK  180  A    between atoms: _466  and  _468
REMARK  181  A    between atoms: _468  and  _469
REMARK  182  A    between atoms: _468  and  _471
REMARK  183  A    between atoms: _471  and  _472
REMARK  184  A    between atoms: _472  and  _473
REMARK  185  A    between atoms: _473  and  _474
REMARK  186  A    between atoms: _483  and  _485
REMARK  187  A    between atoms: _485  and  _486
REMARK  188  A    between atoms: _489  and  _491
REMARK  189  A    between atoms: _491  and  _492
REMARK  190  A    between atoms: _495  and  _497
REMARK  191  A    between atoms: _497  and  _498
REMARK  192  A    between atoms: _497  and  _500
REMARK  193  A    between atoms: _500  and  _501
REMARK  194  A    between atoms: _511  and  _513
REMARK  195  A    between atoms: _513  and  _514
REMARK  196  A    between atoms: _513  and  _516
REMARK  197  A    between atoms: _516  and  _517
REMARK  198  A    between atoms: _520  and  _522
REMARK  199  A    between atoms: _522  and  _523
REMARK  200  A    between atoms: _522  and  _525
REMARK  201  A    between atoms: _525  and  _526
REMARK  202  A    between atoms: _526  and  _527
REMARK  203  A    between atoms: _530  and  _532
REMARK  204  A    between atoms: _532  and  _533
REMARK  205  A    between atoms: _532  and  _535
REMARK  206  A    between atoms: _535  and  _536
REMARK  207  A    between atoms: _539  and  _541
REMARK  208  A    between atoms: _541  and  _542
REMARK  209  A    between atoms: _541  and  _544
REMARK  210  A    between atoms: _544  and  _545
REMARK  211  A    between atoms: _545  and  _546
REMARK  212  A    between atoms: _546  and  _547
REMARK  213  A    between atoms: _547  and  _548
REMARK  214  A    between atoms: _552  and  _554
REMARK  215  A    between atoms: _554  and  _555
REMARK  216  A    between atoms: _554  and  _557
REMARK  217  A    between atoms: _557  and  _558
REMARK  218  A    between atoms: _558  and  _559
REMARK  219  A    between atoms: _562  and  _564
REMARK  220  A    between atoms: _564  and  _565
REMARK  221  A    between atoms: _564  and  _567
REMARK  222  A    between atoms: _567  and  _568
REMARK  223  A    between atoms: _574  and  _576
REMARK  224  A    between atoms: _576  and  _577
REMARK  225  A    between atoms: _576  and  _579
REMARK  226  A    between atoms: _579  and  _580
REMARK  227  A    between atoms: _586  and  _588
REMARK  228  A    between atoms: _588  and  _589
REMARK  229  A    between atoms: _588  and  _591
REMARK  230  A    between atoms: _591  and  _592
REMARK  231  A    between atoms: _592  and  _593
REMARK  232  A    between atoms: _596  and  _598
REMARK  233  A    between atoms: _598  and  _599
REMARK  234  A    between atoms: _598  and  _601
REMARK  235  A    between atoms: _604  and  _606
REMARK  236  A    between atoms: _606  and  _607
REMARK  237  A    between atoms: _610  and  _612
REMARK  238  A    between atoms: _612  and  _613
REMARK  239  A    between atoms: _612  and  _615
REMARK  240  A    between atoms: _615  and  _616
REMARK  241  A    between atoms: _619  and  _621
REMARK  242  A    between atoms: _621  and  _622
REMARK  243  A    between atoms: _621  and  _624
REMARK  244  A    between atoms: _627  and  _629
REMARK  245  A    between atoms: _629  and  _630
REMARK  246  A    between atoms: _629  and  _632
REMARK  247  A    between atoms: _632  and  _633
REMARK                            x       y       z     vdW  Elec       q    Type
REMARK                         _______ _______ _______ _____ _____    ______ ____
ROOT
ATOM      1  O   HOH     1      16.938  14.159  13.365  0.00  0.00    +0.000 OA
ENDROOT
TORSDOF 0
REMARK  Name = ../refined-set-2016/4x5y/4x5y_pocket.pdb
REMARK  247 active torsions:
REMARK  status: ('A' for Active; 'I' for Inactive)
REMARK    1  A    between atoms: _1  and  _3
REMARK    2  A    between atoms: _3  and  _4
REMARK    3  A    between atoms: _3  and  _6
REMARK    4  A    between atoms: _6  and  _7
REMARK    5  A    between atoms: _10  and  _12
REMARK    6  A    between atoms: _12  and  _13
REMARK    7  A    between atoms: _12  and  _15
REMARK    8  A    between atoms: _15  and  _16
REMARK    9  A    between atoms: _18  and  _20
REMARK   10  A    between atoms: _20  and  _21
REMARK   11  A    between atoms: _20  and  _23
REMARK   12  A    between atoms: _23  and  _24
REMARK   13  A    between atoms: _26  and  _28
REMARK   14  A    between atoms: _28  and  _29
REMARK   15  A    between atoms: _31  and  _33
REMARK   16  A    between atoms: _33  and  _34
REMARK   17  A    between atoms: _37  and  _39
REMARK   18  A    between atoms: _39  and  _40
REMARK   19  A    between atoms: _39  and  _42
REMARK   20  A    between atoms: _42  and  _43
REMARK   21  A    between atoms: _49  and  _51
REMARK   22  A    between atoms: _51  and  _52
REMARK   23  A    between atoms: _51  and  _54
REMARK   24  A    between atoms: _54  and  _55
REMARK   25  A    between atoms: _58  and  _60
REMARK   26  A    between atoms: _60  and  _61
REMARK   27  A    between atoms: _64  and  _66
REMARK   28  A    between atoms: _66  and  _67
REMARK   29  A    between atoms: _66  and  _69
REMARK   30  A    between atoms: _69  and  _70
REMARK   31  A    between atoms: _73  and  _75
REMARK   32  A    between atoms: _75  and  _76
REMARK   33  A    between atoms: _75  and  _78
REMARK   34  A    between atoms: _78  and  _79
REMARK   35  A    between atoms: _81  and  _83
REMARK   36  A    between atoms: _83  and  _84
REMARK   37  A    between atoms: _83  and  _86
REMARK   38  A    between atoms: _86  and  _87
REMARK   39  A    between atoms: _87  and  _88
REMARK   40  A    between atoms: _91  and  _93
REMARK   41  A    between atoms: _93  and  _94
REMARK   42  A    between atoms: _93  and  _96
REMARK   43  A    between atoms: _96  and  _97
REMARK   44  A    between atoms: _100  and  _102
REMARK   45  A    between atoms: _102  and  _103
REMARK   46  A    between atoms: _102  and  _105
REMARK   47  A    between atoms: _105  and  _106
REMARK   48  A    between atoms: _111  and  _113
REMARK   49  A    between atoms: _113  and  _114
REMARK   50  A    between atoms: _117  and  _119
REMARK   51  A    between atoms: _119  and  _120
REMARK   52  A    between atoms: _119  and  _122
REMARK   53  A    between atoms: _122  and  _123
REMARK   54  A    between atoms: _133  and  _135
REMARK   55  A    between atoms: _135  and  _136
REMARK   56  A    between atoms: _135  and  _138
REMARK   57  A    between atoms: _138  and  _139
REMARK   58  A    between atoms: _142  and  _144
REMARK   59  A    between atoms: _144  and  _145
REMARK   60  A    between atoms: _144  and  _147
REMARK   61  A    between atoms: _147  and  _148
REMARK   62  A    between atoms: _158  and  _160
REMARK   63  A    between atoms: _160  and  _161
REMARK   64  A    between atoms: _160  and  _163
REMARK   65  A    between atoms: _163  and  _164
REMARK   66  A    between atoms: _169  and  _171
REMARK   67  A    between atoms: _171  and  _172
REMARK   68  A    between atoms: _174  and  _176
REMARK   69  A    between atoms: _176  and  _177
REMARK   70  A    between atoms: _176  and  _179
REMARK   71  A    between atoms: _179  and  _180
REMARK   72  A    between atoms: _190  and  _192
REMARK   73  A    between atoms: _192  and  _193
REMARK   74  A    between atoms: _192  and  _195
REMARK   75  A    between atoms: _195  and  _196
REMARK   76  A    between atoms: _199  and  _201
REMARK   77  A    between atoms: _201  and  _202
REMARK   78  A    between atoms: _201  and  _204
REMARK   79  A    between atoms: _204  and  _205
REMARK   80  A    between atoms: _205  and  _206
REMARK   81  A    between atoms: _208  and  _210
REMARK   82  A    between atoms: _210  and  _211
REMARK   83  A    between atoms: _210  and  _213
REMARK   84  A    between atoms: _215  and  _217
REMARK   85  A    between atoms: _217  and  _218
REMARK   86  A    between atoms: _221  and  _223
REMARK   87  A    between atoms: _223  and  _224
REMARK   88  A    between atoms: _223  and  _226
REMARK   89  A    between atoms: _226  and  _227
REMARK   90  A    between atoms: _233  and  _235
REMARK   91  A    between atoms: _235  and  _236
REMARK   92  A    between atoms: _235  and  _238
REMARK   93  A    between atoms: _238  and  _239
REMARK   94  A    between atoms: _239  and  _240
REMARK   95  A    between atoms: _242  and  _244
REMARK   96  A    between atoms: _244  and  _245
REMARK   97  A    between atoms: _244  and  _247
REMARK   98  A    between atoms: _250  and  _252
REMARK   99  A    between atoms: _252  and  _253
REMARK  100  A    between atoms: _252  and  _255
REMARK  101  A    between atoms: _257  and  _259
REMARK  102  A    between atoms: _259  and  _260
REMARK  103  A    between atoms: _263  and  _265
REMARK  104  A    between atoms: _265  and  _266
REMARK  105  A    between atoms: _265  and  _268
REMARK  106  A    between atoms: _268  and  _269
REMARK  107  A    between atoms: _274  and  _275
REMARK  108  A    between atoms: _278  and  _279
REMARK  109  A    between atoms: _284  and  _286
REMARK  110  A    between atoms: _286  and  _287
REMARK  111  A    between atoms: _286  and  _289
REMARK  112  A    between atoms: _289  and  _290
REMARK  113  A    between atoms: _290  and  _291
REMARK  114  A    between atoms: _293  and  _295
REMARK  115  A    between atoms: _295  and  _296
REMARK  116  A    between atoms: _299  and  _301
REMARK  117  A    between atoms: _301  and  _302
REMARK  118  A    between atoms: _301  and  _304
REMARK  119  A    between atoms: _304  and  _305
REMARK  120  A    between atoms: _308  and  _310
REMARK  121  A    between atoms: _310  and  _311
REMARK  122  A    between atoms: _313  and  _315
REMARK  123  A    between atoms: _315  and  _316
REMARK  124  A    between atoms: _315  and  _318
REMARK  125  A    between atoms: _318  and  _319
REMARK  126  A    between atoms: _324  and  _326
REMARK  127  A    between atoms: _326  and  _327
REMARK  128  A    between atoms: _326  and  _329
REMARK  129  A    between atoms: _329  and  _330
REMARK  130  A    between atoms: _333  and  _335
REMARK  131  A    between atoms: _335  and  _336
REMARK  132  A    between atoms: _335  and  _338
REMARK  133  A    between atoms: _338  and  _339
REMARK  134  A    between atoms: _344  and  _345
REMARK  135  A    between atoms: _347  and  _349
REMARK  136  A    between atoms: _349  and  _350
REMARK  137  A    between atoms: _349  and  _352
REMARK  138  A    between atoms: _352  and  _353
REMARK  139  A    between atoms: _356  and  _358
REMARK  140  A    between atoms: _358  and  _359
REMARK  141  A    between atoms: _358  and  _361
REMARK  142  A    between atoms: _361  and  _362
REMARK  143  A    between atoms: _367  and  _368
REMARK  144  A    between atoms: _371  and  _372
REMARK  145  A    between atoms: _377  and  _379
REMARK  146  A    between atoms: _379  and  _380
REMARK  147  A    between atoms: _379  and  _382
REMARK  148  A    between atoms: _382  and  _383
REMARK  149  A    between atoms: _388  and  _389
REMARK  150  A    between atoms: _391  and  _393
REMARK  151  A    between atoms: _393  and  _394
REMARK  152  A    between atoms: _393  and  _396
REMARK  153  A    between atoms: _396  and  _397
REMARK  154  A    between atoms: _397  and  _398
REMARK  155  A    between atoms: _400  and  _402
REMARK  156  A    between atoms: _402  and  _403
REMARK  157  A    between atoms: _402  and  _405
REMARK  158  A    between atoms: _405  and  _406
REMARK  159  A    between atoms: _411  and  _412
REMARK  160  A    between atoms: _414  and  _416
REMARK  161  A    between atoms: _416  and  _417
REMARK  162  A    between atoms: _416  and  _419
REMARK  163  A    between atoms: _419  and  _420
REMARK  164  A    between atoms: _423  and  _425
REMARK  165  A    between atoms: _425  and  _426
REMARK  166  A    between atoms: _429  and  _431
REMARK  167  A    between atoms: _431  and  _432
REMARK  168  A    between atoms: _434  and  _436
REMARK  169  A    between atoms: _436  and  _437
REMARK  170  A    between atoms: _436  and  _439
REMARK  171  A    between atoms: _439  and  _440
REMARK  172  A    between atoms: _445  and  _446
REMARK  173  A    between atoms: _448  and  _450
REMARK  174  A    between atoms: _450  and  _451
REMARK  175  A    between atoms: _450  and  _453
REMARK  176  A    between atoms: _453  and  _454
REMARK  177  A    between atoms: _459  and  _461
REMARK  178  A    between atoms: _461  and  _462
REMARK  179  A    between atoms: _461  and  _464
REMARK  180  A    between atoms: _466  and  _468
REMARK  181  A    between atoms: _468  and  _469
REMARK  182  A    between atoms: _468  and  _471
REMARK  183  A    between atoms: _471  and  _472
REMARK  184  A    between atoms: _472  and  _473
REMARK  185  A    between atoms: _473  and  _474
REMARK  186  A    between atoms: _483  and  _485
REMARK  187  A    between atoms: _485  and  _486
REMARK  188  A    between atoms: _489  and  _491
REMARK  189  A    between atoms: _491  and  _492
REMARK  190  A    between atoms: _495  and  _497
REMARK  191  A    between atoms: _497  and  _498
REMARK  192  A    between atoms: _497  and  _500
REMARK  193  A    between atoms: _500  and  _501
REMARK  194  A    between atoms: _511  and  _513
REMARK  195  A    between atoms: _513  and  _514
REMARK  196  A    between atoms: _513  and  _516
REMARK  197  A    between atoms: _516  and  _517
REMARK  198  A    between atoms: _520  and  _522
REMARK  199  A    between atoms: _522  and  _523
REMARK  200  A    between atoms: _522  and  _525
REMARK  201  A    between atoms: _525  and  _526
REMARK  202  A    between atoms: _526  and  _527
REMARK  203  A    between atoms: _530  and  _532
REMARK  204  A    between atoms: _532  and  _533
REMARK  205  A    between atoms: _532  and  _535
REMARK  206  A    between atoms: _535  and  _536
REMARK  207  A    between atoms: _539  and  _541
REMARK  208  A    between atoms: _541  and  _542
REMARK  209  A    between atoms: _541  and  _544
REMARK  210  A    between atoms: _544  and  _545
REMARK  211  A    between atoms: _545  and  _546
REMARK  212  A    between atoms: _546  and  _547
REMARK  213  A    between atoms: _547  and  _548
REMARK  214  A    between atoms: _552  and  _554
REMARK  215  A    between atoms: _554  and  _555
REMARK  216  A    between atoms: _554  and  _557
REMARK  217  A    between atoms: _557  and  _558
REMARK  218  A    between atoms: _558  and  _559
REMARK  219  A    between atoms: _562  and  _564
REMARK  220  A    between atoms: _564  and  _565
REMARK  221  A    between atoms: _564  and  _567
REMARK  222  A    between atoms: _567  and  _568
REMARK  223  A    between atoms: _574  and  _576
REMARK  224  A    between atoms: _576  and  _577
REMARK  225  A    between atoms: _576  and  _579
REMARK  226  A    between atoms: _579  and  _580
REMARK  227  A    between atoms: _586  and  _588
REMARK  228  A    between atoms: _588  and  _589
REMARK  229  A    between atoms: _588  and  _591
REMARK  230  A    between atoms: _591  and  _592
REMARK  231  A    between atoms: _592  and  _593
REMARK  232  A    between atoms: _596  and  _598
REMARK  233  A    between atoms: _598  and  _599
REMARK  234  A    between atoms: _598  and  _601
REMARK  235  A    between atoms: _604  and  _606
REMARK  236  A    between atoms: _606  and  _607
REMARK  237  A    between atoms: _610  and  _612
REMARK  238  A    between atoms: _612  and  _613
REMARK  239  A    between atoms: _612  and  _615
REMARK  240  A    between atoms: _615  and  _616
REMARK  241  A    between atoms: _619  and  _621
REMARK  242  A    between atoms: _621  and  _622
REMARK  243  A    between atoms: _621  and  _624
REMARK  244  A    between atoms: _627  and  _629
REMARK  245  A    between atoms: _629  and  _630
REMARK  246  A    between atoms: _629  and  _632
REMARK  247  A    between atoms: _632  and  _633
REMARK                            x       y       z     vdW  Elec       q    Type
REMARK                         _______ _______ _______ _____ _____    ______ ____
ROOT
ATOM      1  O   HOH     1       4.528  12.898   5.572  0.00  0.00    +0.000 OA
ENDROOT
TORSDOF 0
REMARK  Name = ../refined-set-2016/4x5y/4x5y_pocket.pdb
REMARK  247 active torsions:
REMARK  status: ('A' for Active; 'I' for Inactive)
REMARK    1  A    between atoms: _1  and  _3
REMARK    2  A    between atoms: _3  and  _4
REMARK    3  A    between atoms: _3  and  _6
REMARK    4  A    between atoms: _6  and  _7
REMARK    5  A    between atoms: _10  and  _12
REMARK    6  A    between atoms: _12  and  _13
REMARK    7  A    between atoms: _12  and  _15
REMARK    8  A    between atoms: _15  and  _16
REMARK    9  A    between atoms: _18  and  _20
REMARK   10  A    between atoms: _20  and  _21
REMARK   11  A    between atoms: _20  and  _23
REMARK   12  A    between atoms: _23  and  _24
REMARK   13  A    between atoms: _26  and  _28
REMARK   14  A    between atoms: _28  and  _29
REMARK   15  A    between atoms: _31  and  _33
REMARK   16  A    between atoms: _33  and  _34
REMARK   17  A    between atoms: _37  and  _39
REMARK   18  A    between atoms: _39  and  _40
REMARK   19  A    between atoms: _39  and  _42
REMARK   20  A    between atoms: _42  and  _43
REMARK   21  A    between atoms: _49  and  _51
REMARK   22  A    between atoms: _51  and  _52
REMARK   23  A    between atoms: _51  and  _54
REMARK   24  A    between atoms: _54  and  _55
REMARK   25  A    between atoms: _58  and  _60
REMARK   26  A    between atoms: _60  and  _61
REMARK   27  A    between atoms: _64  and  _66
REMARK   28  A    between atoms: _66  and  _67
REMARK   29  A    between atoms: _66  and  _69
REMARK   30  A    between atoms: _69  and  _70
REMARK   31  A    between atoms: _73  and  _75
REMARK   32  A    between atoms: _75  and  _76
REMARK   33  A    between atoms: _75  and  _78
REMARK   34  A    between atoms: _78  and  _79
REMARK   35  A    between atoms: _81  and  _83
REMARK   36  A    between atoms: _83  and  _84
REMARK   37  A    between atoms: _83  and  _86
REMARK   38  A    between atoms: _86  and  _87
REMARK   39  A    between atoms: _87  and  _88
REMARK   40  A    between atoms: _91  and  _93
REMARK   41  A    between atoms: _93  and  _94
REMARK   42  A    between atoms: _93  and  _96
REMARK   43  A    between atoms: _96  and  _97
REMARK   44  A    between atoms: _100  and  _102
REMARK   45  A    between atoms: _102  and  _103
REMARK   46  A    between atoms: _102  and  _105
REMARK   47  A    between atoms: _105  and  _106
REMARK   48  A    between atoms: _111  and  _113
REMARK   49  A    between atoms: _113  and  _114
REMARK   50  A    between atoms: _117  and  _119
REMARK   51  A    between atoms: _119  and  _120
REMARK   52  A    between atoms: _119  and  _122
REMARK   53  A    between atoms: _122  and  _123
REMARK   54  A    between atoms: _133  and  _135
REMARK   55  A    between atoms: _135  and  _136
REMARK   56  A    between atoms: _135  and  _138
REMARK   57  A    between atoms: _138  and  _139
REMARK   58  A    between atoms: _142  and  _144
REMARK   59  A    between atoms: _144  and  _145
REMARK   60  A    between atoms: _144  and  _147
REMARK   61  A    between atoms: _147  and  _148
REMARK   62  A    between atoms: _158  and  _160
REMARK   63  A    between atoms: _160  and  _161
REMARK   64  A    between atoms: _160  and  _163
REMARK   65  A    between atoms: _163  and  _164
REMARK   66  A    between atoms: _169  and  _171
REMARK   67  A    between atoms: _171  and  _172
REMARK   68  A    between atoms: _174  and  _176
REMARK   69  A    between atoms: _176  and  _177
REMARK   70  A    between atoms: _176  and  _179
REMARK   71  A    between atoms: _179  and  _180
REMARK   72  A    between atoms: _190  and  _192
REMARK   73  A    between atoms: _192  and  _193
REMARK   74  A    between atoms: _192  and  _195
REMARK   75  A    between atoms: _195  and  _196
REMARK   76  A    between atoms: _199  and  _201
REMARK   77  A    between atoms: _201  and  _202
REMARK   78  A    between atoms: _201  and  _204
REMARK   79  A    between atoms: _204  and  _205
REMARK   80  A    between atoms: _205  and  _206
REMARK   81  A    between atoms: _208  and  _210
REMARK   82  A    between atoms: _210  and  _211
REMARK   83  A    between atoms: _210  and  _213
REMARK   84  A    between atoms: _215  and  _217
REMARK   85  A    between atoms: _217  and  _218
REMARK   86  A    between atoms: _221  and  _223
REMARK   87  A    between atoms: _223  and  _224
REMARK   88  A    between atoms: _223  and  _226
REMARK   89  A    between atoms: _226  and  _227
REMARK   90  A    between atoms: _233  and  _235
REMARK   91  A    between atoms: _235  and  _236
REMARK   92  A    between atoms: _235  and  _238
REMARK   93  A    between atoms: _238  and  _239
REMARK   94  A    between atoms: _239  and  _240
REMARK   95  A    between atoms: _242  and  _244
REMARK   96  A    between atoms: _244  and  _245
REMARK   97  A    between atoms: _244  and  _247
REMARK   98  A    between atoms: _250  and  _252
REMARK   99  A    between atoms: _252  and  _253
REMARK  100  A    between atoms: _252  and  _255
REMARK  101  A    between atoms: _257  and  _259
REMARK  102  A    between atoms: _259  and  _260
REMARK  103  A    between atoms: _263  and  _265
REMARK  104  A    between atoms: _265  and  _266
REMARK  105  A    between atoms: _265  and  _268
REMARK  106  A    between atoms: _268  and  _269
REMARK  107  A    between atoms: _274  and  _275
REMARK  108  A    between atoms: _278  and  _279
REMARK  109  A    between atoms: _284  and  _286
REMARK  110  A    between atoms: _286  and  _287
REMARK  111  A    between atoms: _286  and  _289
REMARK  112  A    between atoms: _289  and  _290
REMARK  113  A    between atoms: _290  and  _291
REMARK  114  A    between atoms: _293  and  _295
REMARK  115  A    between atoms: _295  and  _296
REMARK  116  A    between atoms: _299  and  _301
REMARK  117  A    between atoms: _301  and  _302
REMARK  118  A    between atoms: _301  and  _304
REMARK  119  A    between atoms: _304  and  _305
REMARK  120  A    between atoms: _308  and  _310
REMARK  121  A    between atoms: _310  and  _311
REMARK  122  A    between atoms: _313  and  _315
REMARK  123  A    between atoms: _315  and  _316
REMARK  124  A    between atoms: _315  and  _318
REMARK  125  A    between atoms: _318  and  _319
REMARK  126  A    between atoms: _324  and  _326
REMARK  127  A    between atoms: _326  and  _327
REMARK  128  A    between atoms: _326  and  _329
REMARK  129  A    between atoms: _329  and  _330
REMARK  130  A    between atoms: _333  and  _335
REMARK  131  A    between atoms: _335  and  _336
REMARK  132  A    between atoms: _335  and  _338
REMARK  133  A    between atoms: _338  and  _339
REMARK  134  A    between atoms: _344  and  _345
REMARK  135  A    between atoms: _347  and  _349
REMARK  136  A    between atoms: _349  and  _350
REMARK  137  A    between atoms: _349  and  _352
REMARK  138  A    between atoms: _352  and  _353
REMARK  139  A    between atoms: _356  and  _358
REMARK  140  A    between atoms: _358  and  _359
REMARK  141  A    between atoms: _358  and  _361
REMARK  142  A    between atoms: _361  and  _362
REMARK  143  A    between atoms: _367  and  _368
REMARK  144  A    between atoms: _371  and  _372
REMARK  145  A    between atoms: _377  and  _379
REMARK  146  A    between atoms: _379  and  _380
REMARK  147  A    between atoms: _379  and  _382
REMARK  148  A    between atoms: _382  and  _383
REMARK  149  A    between atoms: _388  and  _389
REMARK  150  A    between atoms: _391  and  _393
REMARK  151  A    between atoms: _393  and  _394
REMARK  152  A    between atoms: _393  and  _396
REMARK  153  A    between atoms: _396  and  _397
REMARK  154  A    between atoms: _397  and  _398
REMARK  155  A    between atoms: _400  and  _402
REMARK  156  A    between atoms: _402  and  _403
REMARK  157  A    between atoms: _402  and  _405
REMARK  158  A    between atoms: _405  and  _406
REMARK  159  A    between atoms: _411  and  _412
REMARK  160  A    between atoms: _414  and  _416
REMARK  161  A    between atoms: _416  and  _417
REMARK  162  A    between atoms: _416  and  _419
REMARK  163  A    between atoms: _419  and  _420
REMARK  164  A    between atoms: _423  and  _425
REMARK  165  A    between atoms: _425  and  _426
REMARK  166  A    between atoms: _429  and  _431
REMARK  167  A    between atoms: _431  and  _432
REMARK  168  A    between atoms: _434  and  _436
REMARK  169  A    between atoms: _436  and  _437
REMARK  170  A    between atoms: _436  and  _439
REMARK  171  A    between atoms: _439  and  _440
REMARK  172  A    between atoms: _445  and  _446
REMARK  173  A    between atoms: _448  and  _450
REMARK  174  A    between atoms: _450  and  _451
REMARK  175  A    between atoms: _450  and  _453
REMARK  176  A    between atoms: _453  and  _454
REMARK  177  A    between atoms: _459  and  _461
REMARK  178  A    between atoms: _461  and  _462
REMARK  179  A    between atoms: _461  and  _464
REMARK  180  A    between atoms: _466  and  _468
REMARK  181  A    between atoms: _468  and  _469
REMARK  182  A    between atoms: _468  and  _471
REMARK  183  A    between atoms: _471  and  _472
REMARK  184  A    between atoms: _472  and  _473
REMARK  185  A    between atoms: _473  and  _474
REMARK  186  A    between atoms: _483  and  _485
REMARK  187  A    between atoms: _485  and  _486
REMARK  188  A    between atoms: _489  and  _491
REMARK  189  A    between atoms: _491  and  _492
REMARK  190  A    between atoms: _495  and  _497
REMARK  191  A    between atoms: _497  and  _498
REMARK  192  A    between atoms: _497  and  _500
REMARK  193  A    between atoms: _500  and  _501
REMARK  194  A    between atoms: _511  and  _513
REMARK  195  A    between atoms: _513  and  _514
REMARK  196  A    between atoms: _513  and  _516
REMARK  197  A    between atoms: _516  and  _517
REMARK  198  A    between atoms: _520  and  _522
REMARK  199  A    between atoms: _522  and  _523
REMARK  200  A    between atoms: _522  and  _525
REMARK  201  A    between atoms: _525  and  _526
REMARK  202  A    between atoms: _526  and  _527
REMARK  203  A    between atoms: _530  and  _532
REMARK  204  A    between atoms: _532  and  _533
REMARK  205  A    between atoms: _532  and  _535
REMARK  206  A    between atoms: _535  and  _536
REMARK  207  A    between atoms: _539  and  _541
REMARK  208  A    between atoms: _541  and  _542
REMARK  209  A    between atoms: _541  and  _544
REMARK  210  A    between atoms: _544  and  _545
REMARK  211  A    between atoms: _545  and  _546
REMARK  212  A    between atoms: _546  and  _547
REMARK  213  A    between atoms: _547  and  _548
REMARK  214  A    between atoms: _552  and  _554
REMARK  215  A    between atoms: _554  and  _555
REMARK  216  A    between atoms: _554  and  _557
REMARK  217  A    between atoms: _557  and  _558
REMARK  218  A    between atoms: _558  and  _559
REMARK  219  A    between atoms: _562  and  _564
REMARK  220  A    between atoms: _564  and  _565
REMARK  221  A    between atoms: _564  and  _567
REMARK  222  A    between atoms: _567  and  _568
REMARK  223  A    between atoms: _574  and  _576
REMARK  224  A    between atoms: _576  and  _577
REMARK  225  A    between atoms: _576  and  _579
REMARK  226  A    between atoms: _579  and  _580
REMARK  227  A    between atoms: _586  and  _588
REMARK  228  A    between atoms: _588  and  _589
REMARK  229  A    between atoms: _588  and  _591
REMARK  230  A    between atoms: _591  and  _592
REMARK  231  A    between atoms: _592  and  _593
REMARK  232  A    between atoms: _596  and  _598
REMARK  233  A    between atoms: _598  and  _599
REMARK  234  A    between atoms: _598  and  _601
REMARK  235  A    between atoms: _604  and  _606
REMARK  236  A    between atoms: _606  and  _607
REMARK  237  A    between atoms: _610  and  _612
REMARK  238  A    between atoms: _612  and  _613
REMARK  239  A    between atoms: _612  and  _615
REMARK  240  A    between atoms: _615  and  _616
REMARK  241  A    between atoms: _619  and  _621
REMARK  242  A    between atoms: _621  and  _622
REMARK  243  A    between atoms: _621  and  _624
REMARK  244  A    between atoms: _627  and  _629
REMARK  245  A    between atoms: _629  and  _630
REMARK  246  A    between atoms: _629  and  _632
REMARK  247  A    between atoms: _632  and  _633
REMARK                            x       y       z     vdW  Elec       q    Type
REMARK                         _______ _______ _______ _____ _____    ______ ____
ROOT
ATOM      1  O   HOH     1      20.493   9.080  10.886  0.00  0.00    +0.000 OA
ENDROOT
TORSDOF 0
REMARK  Name = ../refined-set-2016/4x5y/4x5y_pocket.pdb
REMARK  247 active torsions:
REMARK  status: ('A' for Active; 'I' for Inactive)
REMARK    1  A    between atoms: _1  and  _3
REMARK    2  A    between atoms: _3  and  _4
REMARK    3  A    between atoms: _3  and  _6
REMARK    4  A    between atoms: _6  and  _7
REMARK    5  A    between atoms: _10  and  _12
REMARK    6  A    between atoms: _12  and  _13
REMARK    7  A    between atoms: _12  and  _15
REMARK    8  A    between atoms: _15  and  _16
REMARK    9  A    between atoms: _18  and  _20
REMARK   10  A    between atoms: _20  and  _21
REMARK   11  A    between atoms: _20  and  _23
REMARK   12  A    between atoms: _23  and  _24
REMARK   13  A    between atoms: _26  and  _28
REMARK   14  A    between atoms: _28  and  _29
REMARK   15  A    between atoms: _31  and  _33
REMARK   16  A    between atoms: _33  and  _34
REMARK   17  A    between atoms: _37  and  _39
REMARK   18  A    between atoms: _39  and  _40
REMARK   19  A    between atoms: _39  and  _42
REMARK   20  A    between atoms: _42  and  _43
REMARK   21  A    between atoms: _49  and  _51
REMARK   22  A    between atoms: _51  and  _52
REMARK   23  A    between atoms: _51  and  _54
REMARK   24  A    between atoms: _54  and  _55
REMARK   25  A    between atoms: _58  and  _60
REMARK   26  A    between atoms: _60  and  _61
REMARK   27  A    between atoms: _64  and  _66
REMARK   28  A    between atoms: _66  and  _67
REMARK   29  A    between atoms: _66  and  _69
REMARK   30  A    between atoms: _69  and  _70
REMARK   31  A    between atoms: _73  and  _75
REMARK   32  A    between atoms: _75  and  _76
REMARK   33  A    between atoms: _75  and  _78
REMARK   34  A    between atoms: _78  and  _79
REMARK   35  A    between atoms: _81  and  _83
REMARK   36  A    between atoms: _83  and  _84
REMARK   37  A    between atoms: _83  and  _86
REMARK   38  A    between atoms: _86  and  _87
REMARK   39  A    between atoms: _87  and  _88
REMARK   40  A    between atoms: _91  and  _93
REMARK   41  A    between atoms: _93  and  _94
REMARK   42  A    between atoms: _93  and  _96
REMARK   43  A    between atoms: _96  and  _97
REMARK   44  A    between atoms: _100  and  _102
REMARK   45  A    between atoms: _102  and  _103
REMARK   46  A    between atoms: _102  and  _105
REMARK   47  A    between atoms: _105  and  _106
REMARK   48  A    between atoms: _111  and  _113
REMARK   49  A    between atoms: _113  and  _114
REMARK   50  A    between atoms: _117  and  _119
REMARK   51  A    between atoms: _119  and  _120
REMARK   52  A    between atoms: _119  and  _122
REMARK   53  A    between atoms: _122  and  _123
REMARK   54  A    between atoms: _133  and  _135
REMARK   55  A    between atoms: _135  and  _136
REMARK   56  A    between atoms: _135  and  _138
REMARK   57  A    between atoms: _138  and  _139
REMARK   58  A    between atoms: _142  and  _144
REMARK   59  A    between atoms: _144  and  _145
REMARK   60  A    between atoms: _144  and  _147
REMARK   61  A    between atoms: _147  and  _148
REMARK   62  A    between atoms: _158  and  _160
REMARK   63  A    between atoms: _160  and  _161
REMARK   64  A    between atoms: _160  and  _163
REMARK   65  A    between atoms: _163  and  _164
REMARK   66  A    between atoms: _169  and  _171
REMARK   67  A    between atoms: _171  and  _172
REMARK   68  A    between atoms: _174  and  _176
REMARK   69  A    between atoms: _176  and  _177
REMARK   70  A    between atoms: _176  and  _179
REMARK   71  A    between atoms: _179  and  _180
REMARK   72  A    between atoms: _190  and  _192
REMARK   73  A    between atoms: _192  and  _193
REMARK   74  A    between atoms: _192  and  _195
REMARK   75  A    between atoms: _195  and  _196
REMARK   76  A    between atoms: _199  and  _201
REMARK   77  A    between atoms: _201  and  _202
REMARK   78  A    between atoms: _201  and  _204
REMARK   79  A    between atoms: _204  and  _205
REMARK   80  A    between atoms: _205  and  _206
REMARK   81  A    between atoms: _208  and  _210
REMARK   82  A    between atoms: _210  and  _211
REMARK   83  A    between atoms: _210  and  _213
REMARK   84  A    between atoms: _215  and  _217
REMARK   85  A    between atoms: _217  and  _218
REMARK   86  A    between atoms: _221  and  _223
REMARK   87  A    between atoms: _223  and  _224
REMARK   88  A    between atoms: _223  and  _226
REMARK   89  A    between atoms: _226  and  _227
REMARK   90  A    between atoms: _233  and  _235
REMARK   91  A    between atoms: _235  and  _236
REMARK   92  A    between atoms: _235  and  _238
REMARK   93  A    between atoms: _238  and  _239
REMARK   94  A    between atoms: _239  and  _240
REMARK   95  A    between atoms: _242  and  _244
REMARK   96  A    between atoms: _244  and  _245
REMARK   97  A    between atoms: _244  and  _247
REMARK   98  A    between atoms: _250  and  _252
REMARK   99  A    between atoms: _252  and  _253
REMARK  100  A    between atoms: _252  and  _255
REMARK  101  A    between atoms: _257  and  _259
REMARK  102  A    between atoms: _259  and  _260
REMARK  103  A    between atoms: _263  and  _265
REMARK  104  A    between atoms: _265  and  _266
REMARK  105  A    between atoms: _265  and  _268
REMARK  106  A    between atoms: _268  and  _269
REMARK  107  A    between atoms: _274  and  _275
REMARK  108  A    between atoms: _278  and  _279
REMARK  109  A    between atoms: _284  and  _286
REMARK  110  A    between atoms: _286  and  _287
REMARK  111  A    between atoms: _286  and  _289
REMARK  112  A    between atoms: _289  and  _290
REMARK  113  A    between atoms: _290  and  _291
REMARK  114  A    between atoms: _293  and  _295
REMARK  115  A    between atoms: _295  and  _296
REMARK  116  A    between atoms: _299  and  _301
REMARK  117  A    between atoms: _301  and  _302
REMARK  118  A    between atoms: _301  and  _304
REMARK  119  A    between atoms: _304  and  _305
REMARK  120  A    between atoms: _308  and  _310
REMARK  121  A    between atoms: _310  and  _311
REMARK  122  A    between atoms: _313  and  _315
REMARK  123  A    between atoms: _315  and  _316
REMARK  124  A    between atoms: _315  and  _318
REMARK  125  A    between atoms: _318  and  _319
REMARK  126  A    between atoms: _324  and  _326
REMARK  127  A    between atoms: _326  and  _327
REMARK  128  A    between atoms: _326  and  _329
REMARK  129  A    between atoms: _329  and  _330
REMARK  130  A    between atoms: _333  and  _335
REMARK  131  A    between atoms: _335  and  _336
REMARK  132  A    between atoms: _335  and  _338
REMARK  133  A    between atoms: _338  and  _339
REMARK  134  A    between atoms: _344  and  _345
REMARK  135  A    between atoms: _347  and  _349
REMARK  136  A    between atoms: _349  and  _350
REMARK  137  A    between atoms: _349  and  _352
REMARK  138  A    between atoms: _352  and  _353
REMARK  139  A    between atoms: _356  and  _358
REMARK  140  A    between atoms: _358  and  _359
REMARK  141  A    between atoms: _358  and  _361
REMARK  142  A    between atoms: _361  and  _362
REMARK  143  A    between atoms: _367  and  _368
REMARK  144  A    between atoms: _371  and  _372
REMARK  145  A    between atoms: _377  and  _379
REMARK  146  A    between atoms: _379  and  _380
REMARK  147  A    between atoms: _379  and  _382
REMARK  148  A    between atoms: _382  and  _383
REMARK  149  A    between atoms: _388  and  _389
REMARK  150  A    between atoms: _391  and  _393
REMARK  151  A    between atoms: _393  and  _394
REMARK  152  A    between atoms: _393  and  _396
REMARK  153  A    between atoms: _396  and  _397
REMARK  154  A    between atoms: _397  and  _398
REMARK  155  A    between atoms: _400  and  _402
REMARK  156  A    between atoms: _402  and  _403
REMARK  157  A    between atoms: _402  and  _405
REMARK  158  A    between atoms: _405  and  _406
REMARK  159  A    between atoms: _411  and  _412
REMARK  160  A    between atoms: _414  and  _416
REMARK  161  A    between atoms: _416  and  _417
REMARK  162  A    between atoms: _416  and  _419
REMARK  163  A    between atoms: _419  and  _420
REMARK  164  A    between atoms: _423  and  _425
REMARK  165  A    between atoms: _425  and  _426
REMARK  166  A    between atoms: _429  and  _431
REMARK  167  A    between atoms: _431  and  _432
REMARK  168  A    between atoms: _434  and  _436
REMARK  169  A    between atoms: _436  and  _437
REMARK  170  A    between atoms: _436  and  _439
REMARK  171  A    between atoms: _439  and  _440
REMARK  172  A    between atoms: _445  and  _446
REMARK  173  A    between atoms: _448  and  _450
REMARK  174  A    between atoms: _450  and  _451
REMARK  175  A    between atoms: _450  and  _453
REMARK  176  A    between atoms: _453  and  _454
REMARK  177  A    between atoms: _459  and  _461
REMARK  178  A    between atoms: _461  and  _462
REMARK  179  A    between atoms: _461  and  _464
REMARK  180  A    between atoms: _466  and  _468
REMARK  181  A    between atoms: _468  and  _469
REMARK  182  A    between atoms: _468  and  _471
REMARK  183  A    between atoms: _471  and  _472
REMARK  184  A    between atoms: _472  and  _473
REMARK  185  A    between atoms: _473  and  _474
REMARK  186  A    between atoms: _483  and  _485
REMARK  187  A    between atoms: _485  and  _486
REMARK  188  A    between atoms: _489  and  _491
REMARK  189  A    between atoms: _491  and  _492
REMARK  190  A    between atoms: _495  and  _497
REMARK  191  A    between atoms: _497  and  _498
REMARK  192  A    between atoms: _497  and  _500
REMARK  193  A    between atoms: _500  and  _501
REMARK  194  A    between atoms: _511  and  _513
REMARK  195  A    between atoms: _513  and  _514
REMARK  196  A    between atoms: _513  and  _516
REMARK  197  A    between atoms: _516  and  _517
REMARK  198  A    between atoms: _520  and  _522
REMARK  199  A    between atoms: _522  and  _523
REMARK  200  A    between atoms: _522  and  _525
REMARK  201  A    between atoms: _525  and  _526
REMARK  202  A    between atoms: _526  and  _527
REMARK  203  A    between atoms: _530  and  _532
REMARK  204  A    between atoms: _532  and  _533
REMARK  205  A    between atoms: _532  and  _535
REMARK  206  A    between atoms: _535  and  _536
REMARK  207  A    between atoms: _539  and  _541
REMARK  208  A    between atoms: _541  and  _542
REMARK  209  A    between atoms: _541  and  _544
REMARK  210  A    between atoms: _544  and  _545
REMARK  211  A    between atoms: _545  and  _546
REMARK  212  A    between atoms: _546  and  _547
REMARK  213  A    between atoms: _547  and  _548
REMARK  214  A    between atoms: _552  and  _554
REMARK  215  A    between atoms: _554  and  _555
REMARK  216  A    between atoms: _554  and  _557
REMARK  217  A    between atoms: _557  and  _558
REMARK  218  A    between atoms: _558  and  _559
REMARK  219  A    between atoms: _562  and  _564
REMARK  220  A    between atoms: _564  and  _565
REMARK  221  A    between atoms: _564  and  _567
REMARK  222  A    between atoms: _567  and  _568
REMARK  223  A    between atoms: _574  and  _576
REMARK  224  A    between atoms: _576  and  _577
REMARK  225  A    between atoms: _576  and  _579
REMARK  226  A    between atoms: _579  and  _580
REMARK  227  A    between atoms: _586  and  _588
REMARK  228  A    between atoms: _588  and  _589
REMARK  229  A    between atoms: _588  and  _591
REMARK  230  A    between atoms: _591  and  _592
REMARK  231  A    between atoms: _592  and  _593
REMARK  232  A    between atoms: _596  and  _598
REMARK  233  A    between atoms: _598  and  _599
REMARK  234  A    between atoms: _598  and  _601
REMARK  235  A    between atoms: _604  and  _606
REMARK  236  A    between atoms: _606  and  _607
REMARK  237  A    between atoms: _610  and  _612
REMARK  238  A    between atoms: _612  and  _613
REMARK  239  A    between atoms: _612  and  _615
REMARK  240  A    between atoms: _615  and  _616
REMARK  241  A    between atoms: _619  and  _621
REMARK  242  A    between atoms: _621  and  _622
REMARK  243  A    between atoms: _621  and  _624
REMARK  244  A    between atoms: _627  and  _629
REMARK  245  A    between atoms: _629  and  _630
REMARK  246  A    between atoms: _629  and  _632
REMARK  247  A    between atoms: _632  and  _633
REMARK                            x       y       z     vdW  Elec       q    Type
REMARK                         _______ _______ _______ _____ _____    ______ ____
ROOT
ATOM      1  O   HOH     1       5.597  30.618  11.743  0.00  0.00    +0.000 OA
ENDROOT
TORSDOF 0
REMARK  Name = ../refined-set-2016/4x5y/4x5y_pocket.pdb
REMARK  247 active torsions:
REMARK  status: ('A' for Active; 'I' for Inactive)
REMARK    1  A    between atoms: _1  and  _3
REMARK    2  A    between atoms: _3  and  _4
REMARK    3  A    between atoms: _3  and  _6
REMARK    4  A    between atoms: _6  and  _7
REMARK    5  A    between atoms: _10  and  _12
REMARK    6  A    between atoms: _12  and  _13
REMARK    7  A    between atoms: _12  and  _15
REMARK    8  A    between atoms: _15  and  _16
REMARK    9  A    between atoms: _18  and  _20
REMARK   10  A    between atoms: _20  and  _21
REMARK   11  A    between atoms: _20  and  _23
REMARK   12  A    between atoms: _23  and  _24
REMARK   13  A    between atoms: _26  and  _28
REMARK   14  A    between atoms: _28  and  _29
REMARK   15  A    between atoms: _31  and  _33
REMARK   16  A    between atoms: _33  and  _34
REMARK   17  A    between atoms: _37  and  _39
REMARK   18  A    between atoms: _39  and  _40
REMARK   19  A    between atoms: _39  and  _42
REMARK   20  A    between atoms: _42  and  _43
REMARK   21  A    between atoms: _49  and  _51
REMARK   22  A    between atoms: _51  and  _52
REMARK   23  A    between atoms: _51  and  _54
REMARK   24  A    between atoms: _54  and  _55
REMARK   25  A    between atoms: _58  and  _60
REMARK   26  A    between atoms: _60  and  _61
REMARK   27  A    between atoms: _64  and  _66
REMARK   28  A    between atoms: _66  and  _67
REMARK   29  A    between atoms: _66  and  _69
REMARK   30  A    between atoms: _69  and  _70
REMARK   31  A    between atoms: _73  and  _75
REMARK   32  A    between atoms: _75  and  _76
REMARK   33  A    between atoms: _75  and  _78
REMARK   34  A    between atoms: _78  and  _79
REMARK   35  A    between atoms: _81  and  _83
REMARK   36  A    between atoms: _83  and  _84
REMARK   37  A    between atoms: _83  and  _86
REMARK   38  A    between atoms: _86  and  _87
REMARK   39  A    between atoms: _87  and  _88
REMARK   40  A    between atoms: _91  and  _93
REMARK   41  A    between atoms: _93  and  _94
REMARK   42  A    between atoms: _93  and  _96
REMARK   43  A    between atoms: _96  and  _97
REMARK   44  A    between atoms: _100  and  _102
REMARK   45  A    between atoms: _102  and  _103
REMARK   46  A    between atoms: _102  and  _105
REMARK   47  A    between atoms: _105  and  _106
REMARK   48  A    between atoms: _111  and  _113
REMARK   49  A    between atoms: _113  and  _114
REMARK   50  A    between atoms: _117  and  _119
REMARK   51  A    between atoms: _119  and  _120
REMARK   52  A    between atoms: _119  and  _122
REMARK   53  A    between atoms: _122  and  _123
REMARK   54  A    between atoms: _133  and  _135
REMARK   55  A    between atoms: _135  and  _136
REMARK   56  A    between atoms: _135  and  _138
REMARK   57  A    between atoms: _138  and  _139
REMARK   58  A    between atoms: _142  and  _144
REMARK   59  A    between atoms: _144  and  _145
REMARK   60  A    between atoms: _144  and  _147
REMARK   61  A    between atoms: _147  and  _148
REMARK   62  A    between atoms: _158  and  _160
REMARK   63  A    between atoms: _160  and  _161
REMARK   64  A    between atoms: _160  and  _163
REMARK   65  A    between atoms: _163  and  _164
REMARK   66  A    between atoms: _169  and  _171
REMARK   67  A    between atoms: _171  and  _172
REMARK   68  A    between atoms: _174  and  _176
REMARK   69  A    between atoms: _176  and  _177
REMARK   70  A    between atoms: _176  and  _179
REMARK   71  A    between atoms: _179  and  _180
REMARK   72  A    between atoms: _190  and  _192
REMARK   73  A    between atoms: _192  and  _193
REMARK   74  A    between atoms: _192  and  _195
REMARK   75  A    between atoms: _195  and  _196
REMARK   76  A    between atoms: _199  and  _201
REMARK   77  A    between atoms: _201  and  _202
REMARK   78  A    between atoms: _201  and  _204
REMARK   79  A    between atoms: _204  and  _205
REMARK   80  A    between atoms: _205  and  _206
REMARK   81  A    between atoms: _208  and  _210
REMARK   82  A    between atoms: _210  and  _211
REMARK   83  A    between atoms: _210  and  _213
REMARK   84  A    between atoms: _215  and  _217
REMARK   85  A    between atoms: _217  and  _218
REMARK   86  A    between atoms: _221  and  _223
REMARK   87  A    between atoms: _223  and  _224
REMARK   88  A    between atoms: _223  and  _226
REMARK   89  A    between atoms: _226  and  _227
REMARK   90  A    between atoms: _233  and  _235
REMARK   91  A    between atoms: _235  and  _236
REMARK   92  A    between atoms: _235  and  _238
REMARK   93  A    between atoms: _238  and  _239
REMARK   94  A    between atoms: _239  and  _240
REMARK   95  A    between atoms: _242  and  _244
REMARK   96  A    between atoms: _244  and  _245
REMARK   97  A    between atoms: _244  and  _247
REMARK   98  A    between atoms: _250  and  _252
REMARK   99  A    between atoms: _252  and  _253
REMARK  100  A    between atoms: _252  and  _255
REMARK  101  A    between atoms: _257  and  _259
REMARK  102  A    between atoms: _259  and  _260
REMARK  103  A    between atoms: _263  and  _265
REMARK  104  A    between atoms: _265  and  _266
REMARK  105  A    between atoms: _265  and  _268
REMARK  106  A    between atoms: _268  and  _269
REMARK  107  A    between atoms: _274  and  _275
REMARK  108  A    between atoms: _278  and  _279
REMARK  109  A    between atoms: _284  and  _286
REMARK  110  A    between atoms: _286  and  _287
REMARK  111  A    between atoms: _286  and  _289
REMARK  112  A    between atoms: _289  and  _290
REMARK  113  A    between atoms: _290  and  _291
REMARK  114  A    between atoms: _293  and  _295
REMARK  115  A    between atoms: _295  and  _296
REMARK  116  A    between atoms: _299  and  _301
REMARK  117  A    between atoms: _301  and  _302
REMARK  118  A    between atoms: _301  and  _304
REMARK  119  A    between atoms: _304  and  _305
REMARK  120  A    between atoms: _308  and  _310
REMARK  121  A    between atoms: _310  and  _311
REMARK  122  A    between atoms: _313  and  _315
REMARK  123  A    between atoms: _315  and  _316
REMARK  124  A    between atoms: _315  and  _318
REMARK  125  A    between atoms: _318  and  _319
REMARK  126  A    between atoms: _324  and  _326
REMARK  127  A    between atoms: _326  and  _327
REMARK  128  A    between atoms: _326  and  _329
REMARK  129  A    between atoms: _329  and  _330
REMARK  130  A    between atoms: _333  and  _335
REMARK  131  A    between atoms: _335  and  _336
REMARK  132  A    between atoms: _335  and  _338
REMARK  133  A    between atoms: _338  and  _339
REMARK  134  A    between atoms: _344  and  _345
REMARK  135  A    between atoms: _347  and  _349
REMARK  136  A    between atoms: _349  and  _350
REMARK  137  A    between atoms: _349  and  _352
REMARK  138  A    between atoms: _352  and  _353
REMARK  139  A    between atoms: _356  and  _358
REMARK  140  A    between atoms: _358  and  _359
REMARK  141  A    between atoms: _358  and  _361
REMARK  142  A    between atoms: _361  and  _362
REMARK  143  A    between atoms: _367  and  _368
REMARK  144  A    between atoms: _371  and  _372
REMARK  145  A    between atoms: _377  and  _379
REMARK  146  A    between atoms: _379  and  _380
REMARK  147  A    between atoms: _379  and  _382
REMARK  148  A    between atoms: _382  and  _383
REMARK  149  A    between atoms: _388  and  _389
REMARK  150  A    between atoms: _391  and  _393
REMARK  151  A    between atoms: _393  and  _394
REMARK  152  A    between atoms: _393  and  _396
REMARK  153  A    between atoms: _396  and  _397
REMARK  154  A    between atoms: _397  and  _398
REMARK  155  A    between atoms: _400  and  _402
REMARK  156  A    between atoms: _402  and  _403
REMARK  157  A    between atoms: _402  and  _405
REMARK  158  A    between atoms: _405  and  _406
REMARK  159  A    between atoms: _411  and  _412
REMARK  160  A    between atoms: _414  and  _416
REMARK  161  A    between atoms: _416  and  _417
REMARK  162  A    between atoms: _416  and  _419
REMARK  163  A    between atoms: _419  and  _420
REMARK  164  A    between atoms: _423  and  _425
REMARK  165  A    between atoms: _425  and  _426
REMARK  166  A    between atoms: _429  and  _431
REMARK  167  A    between atoms: _431  and  _432
REMARK  168  A    between atoms: _434  and  _436
REMARK  169  A    between atoms: _436  and  _437
REMARK  170  A    between atoms: _436  and  _439
REMARK  171  A    between atoms: _439  and  _440
REMARK  172  A    between atoms: _445  and  _446
REMARK  173  A    between atoms: _448  and  _450
REMARK  174  A    between atoms: _450  and  _451
REMARK  175  A    between atoms: _450  and  _453
REMARK  176  A    between atoms: _453  and  _454
REMARK  177  A    between atoms: _459  and  _461
REMARK  178  A    between atoms: _461  and  _462
REMARK  179  A    between atoms: _461  and  _464
REMARK  180  A    between atoms: _466  and  _468
REMARK  181  A    between atoms: _468  and  _469
REMARK  182  A    between atoms: _468  and  _471
REMARK  183  A    between atoms: _471  and  _472
REMARK  184  A    between atoms: _472  and  _473
REMARK  185  A    between atoms: _473  and  _474
REMARK  186  A    between atoms: _483  and  _485
REMARK  187  A    between atoms: _485  and  _486
REMARK  188  A    between atoms: _489  and  _491
REMARK  189  A    between atoms: _491  and  _492
REMARK  190  A    between atoms: _495  and  _497
REMARK  191  A    between atoms: _497  and  _498
REMARK  192  A    between atoms: _497  and  _500
REMARK  193  A    between atoms: _500  and  _501
REMARK  194  A    between atoms: _511  and  _513
REMARK  195  A    between atoms: _513  and  _514
REMARK  196  A    between atoms: _513  and  _516
REMARK  197  A    between atoms: _516  and  _517
REMARK  198  A    between atoms: _520  and  _522
REMARK  199  A    between atoms: _522  and  _523
REMARK  200  A    between atoms: _522  and  _525
REMARK  201  A    between atoms: _525  and  _526
REMARK  202  A    between atoms: _526  and  _527
REMARK  203  A    between atoms: _530  and  _532
REMARK  204  A    between atoms: _532  and  _533
REMARK  205  A    between atoms: _532  and  _535
REMARK  206  A    between atoms: _535  and  _536
REMARK  207  A    between atoms: _539  and  _541
REMARK  208  A    between atoms: _541  and  _542
REMARK  209  A    between atoms: _541  and  _544
REMARK  210  A    between atoms: _544  and  _545
REMARK  211  A    between atoms: _545  and  _546
REMARK  212  A    between atoms: _546  and  _547
REMARK  213  A    between atoms: _547  and  _548
REMARK  214  A    between atoms: _552  and  _554
REMARK  215  A    between atoms: _554  and  _555
REMARK  216  A    between atoms: _554  and  _557
REMARK  217  A    between atoms: _557  and  _558
REMARK  218  A    between atoms: _558  and  _559
REMARK  219  A    between atoms: _562  and  _564
REMARK  220  A    between atoms: _564  and  _565
REMARK  221  A    between atoms: _564  and  _567
REMARK  222  A    between atoms: _567  and  _568
REMARK  223  A    between atoms: _574  and  _576
REMARK  224  A    between atoms: _576  and  _577
REMARK  225  A    between atoms: _576  and  _579
REMARK  226  A    between atoms: _579  and  _580
REMARK  227  A    between atoms: _586  and  _588
REMARK  228  A    between atoms: _588  and  _589
REMARK  229  A    between atoms: _588  and  _591
REMARK  230  A    between atoms: _591  and  _592
REMARK  231  A    between atoms: _592  and  _593
REMARK  232  A    between atoms: _596  and  _598
REMARK  233  A    between atoms: _598  and  _599
REMARK  234  A    between atoms: _598  and  _601
REMARK  235  A    between atoms: _604  and  _606
REMARK  236  A    between atoms: _606  and  _607
REMARK  237  A    between atoms: _610  and  _612
REMARK  238  A    between atoms: _612  and  _613
REMARK  239  A    between atoms: _612  and  _615
REMARK  240  A    between atoms: _615  and  _616
REMARK  241  A    between atoms: _619  and  _621
REMARK  242  A    between atoms: _621  and  _622
REMARK  243  A    between atoms: _621  and  _624
REMARK  244  A    between atoms: _627  and  _629
REMARK  245  A    between atoms: _629  and  _630
REMARK  246  A    between atoms: _629  and  _632
REMARK  247  A    between atoms: _632  and  _633
REMARK                            x       y       z     vdW  Elec       q    Type
REMARK                         _______ _______ _______ _____ _____    ______ ____
ROOT
ATOM      1  O   HOH     1      19.483  10.798   3.798  0.00  0.00    +0.000 OA
ENDROOT
TORSDOF 0
REMARK  Name = ../refined-set-2016/4x5y/4x5y_pocket.pdb
REMARK  247 active torsions:
REMARK  status: ('A' for Active; 'I' for Inactive)
REMARK    1  A    between atoms: _1  and  _3
REMARK    2  A    between atoms: _3  and  _4
REMARK    3  A    between atoms: _3  and  _6
REMARK    4  A    between atoms: _6  and  _7
REMARK    5  A    between atoms: _10  and  _12
REMARK    6  A    between atoms: _12  and  _13
REMARK    7  A    between atoms: _12  and  _15
REMARK    8  A    between atoms: _15  and  _16
REMARK    9  A    between atoms: _18  and  _20
REMARK   10  A    between atoms: _20  and  _21
REMARK   11  A    between atoms: _20  and  _23
REMARK   12  A    between atoms: _23  and  _24
REMARK   13  A    between atoms: _26  and  _28
REMARK   14  A    between atoms: _28  and  _29
REMARK   15  A    between atoms: _31  and  _33
REMARK   16  A    between atoms: _33  and  _34
REMARK   17  A    between atoms: _37  and  _39
REMARK   18  A    between atoms: _39  and  _40
REMARK   19  A    between atoms: _39  and  _42
REMARK   20  A    between atoms: _42  and  _43
REMARK   21  A    between atoms: _49  and  _51
REMARK   22  A    between atoms: _51  and  _52
REMARK   23  A    between atoms: _51  and  _54
REMARK   24  A    between atoms: _54  and  _55
REMARK   25  A    between atoms: _58  and  _60
REMARK   26  A    between atoms: _60  and  _61
REMARK   27  A    between atoms: _64  and  _66
REMARK   28  A    between atoms: _66  and  _67
REMARK   29  A    between atoms: _66  and  _69
REMARK   30  A    between atoms: _69  and  _70
REMARK   31  A    between atoms: _73  and  _75
REMARK   32  A    between atoms: _75  and  _76
REMARK   33  A    between atoms: _75  and  _78
REMARK   34  A    between atoms: _78  and  _79
REMARK   35  A    between atoms: _81  and  _83
REMARK   36  A    between atoms: _83  and  _84
REMARK   37  A    between atoms: _83  and  _86
REMARK   38  A    between atoms: _86  and  _87
REMARK   39  A    between atoms: _87  and  _88
REMARK   40  A    between atoms: _91  and  _93
REMARK   41  A    between atoms: _93  and  _94
REMARK   42  A    between atoms: _93  and  _96
REMARK   43  A    between atoms: _96  and  _97
REMARK   44  A    between atoms: _100  and  _102
REMARK   45  A    between atoms: _102  and  _103
REMARK   46  A    between atoms: _102  and  _105
REMARK   47  A    between atoms: _105  and  _106
REMARK   48  A    between atoms: _111  and  _113
REMARK   49  A    between atoms: _113  and  _114
REMARK   50  A    between atoms: _117  and  _119
REMARK   51  A    between atoms: _119  and  _120
REMARK   52  A    between atoms: _119  and  _122
REMARK   53  A    between atoms: _122  and  _123
REMARK   54  A    between atoms: _133  and  _135
REMARK   55  A    between atoms: _135  and  _136
REMARK   56  A    between atoms: _135  and  _138
REMARK   57  A    between atoms: _138  and  _139
REMARK   58  A    between atoms: _142  and  _144
REMARK   59  A    between atoms: _144  and  _145
REMARK   60  A    between atoms: _144  and  _147
REMARK   61  A    between atoms: _147  and  _148
REMARK   62  A    between atoms: _158  and  _160
REMARK   63  A    between atoms: _160  and  _161
REMARK   64  A    between atoms: _160  and  _163
REMARK   65  A    between atoms: _163  and  _164
REMARK   66  A    between atoms: _169  and  _171
REMARK   67  A    between atoms: _171  and  _172
REMARK   68  A    between atoms: _174  and  _176
REMARK   69  A    between atoms: _176  and  _177
REMARK   70  A    between atoms: _176  and  _179
REMARK   71  A    between atoms: _179  and  _180
REMARK   72  A    between atoms: _190  and  _192
REMARK   73  A    between atoms: _192  and  _193
REMARK   74  A    between atoms: _192  and  _195
REMARK   75  A    between atoms: _195  and  _196
REMARK   76  A    between atoms: _199  and  _201
REMARK   77  A    between atoms: _201  and  _202
REMARK   78  A    between atoms: _201  and  _204
REMARK   79  A    between atoms: _204  and  _205
REMARK   80  A    between atoms: _205  and  _206
REMARK   81  A    between atoms: _208  and  _210
REMARK   82  A    between atoms: _210  and  _211
REMARK   83  A    between atoms: _210  and  _213
REMARK   84  A    between atoms: _215  and  _217
REMARK   85  A    between atoms: _217  and  _218
REMARK   86  A    between atoms: _221  and  _223
REMARK   87  A    between atoms: _223  and  _224
REMARK   88  A    between atoms: _223  and  _226
REMARK   89  A    between atoms: _226  and  _227
REMARK   90  A    between atoms: _233  and  _235
REMARK   91  A    between atoms: _235  and  _236
REMARK   92  A    between atoms: _235  and  _238
REMARK   93  A    between atoms: _238  and  _239
REMARK   94  A    between atoms: _239  and  _240
REMARK   95  A    between atoms: _242  and  _244
REMARK   96  A    between atoms: _244  and  _245
REMARK   97  A    between atoms: _244  and  _247
REMARK   98  A    between atoms: _250  and  _252
REMARK   99  A    between atoms: _252  and  _253
REMARK  100  A    between atoms: _252  and  _255
REMARK  101  A    between atoms: _257  and  _259
REMARK  102  A    between atoms: _259  and  _260
REMARK  103  A    between atoms: _263  and  _265
REMARK  104  A    between atoms: _265  and  _266
REMARK  105  A    between atoms: _265  and  _268
REMARK  106  A    between atoms: _268  and  _269
REMARK  107  A    between atoms: _274  and  _275
REMARK  108  A    between atoms: _278  and  _279
REMARK  109  A    between atoms: _284  and  _286
REMARK  110  A    between atoms: _286  and  _287
REMARK  111  A    between atoms: _286  and  _289
REMARK  112  A    between atoms: _289  and  _290
REMARK  113  A    between atoms: _290  and  _291
REMARK  114  A    between atoms: _293  and  _295
REMARK  115  A    between atoms: _295  and  _296
REMARK  116  A    between atoms: _299  and  _301
REMARK  117  A    between atoms: _301  and  _302
REMARK  118  A    between atoms: _301  and  _304
REMARK  119  A    between atoms: _304  and  _305
REMARK  120  A    between atoms: _308  and  _310
REMARK  121  A    between atoms: _310  and  _311
REMARK  122  A    between atoms: _313  and  _315
REMARK  123  A    between atoms: _315  and  _316
REMARK  124  A    between atoms: _315  and  _318
REMARK  125  A    between atoms: _318  and  _319
REMARK  126  A    between atoms: _324  and  _326
REMARK  127  A    between atoms: _326  and  _327
REMARK  128  A    between atoms: _326  and  _329
REMARK  129  A    between atoms: _329  and  _330
REMARK  130  A    between atoms: _333  and  _335
REMARK  131  A    between atoms: _335  and  _336
REMARK  132  A    between atoms: _335  and  _338
REMARK  133  A    between atoms: _338  and  _339
REMARK  134  A    between atoms: _344  and  _345
REMARK  135  A    between atoms: _347  and  _349
REMARK  136  A    between atoms: _349  and  _350
REMARK  137  A    between atoms: _349  and  _352
REMARK  138  A    between atoms: _352  and  _353
REMARK  139  A    between atoms: _356  and  _358
REMARK  140  A    between atoms: _358  and  _359
REMARK  141  A    between atoms: _358  and  _361
REMARK  142  A    between atoms: _361  and  _362
REMARK  143  A    between atoms: _367  and  _368
REMARK  144  A    between atoms: _371  and  _372
REMARK  145  A    between atoms: _377  and  _379
REMARK  146  A    between atoms: _379  and  _380
REMARK  147  A    between atoms: _379  and  _382
REMARK  148  A    between atoms: _382  and  _383
REMARK  149  A    between atoms: _388  and  _389
REMARK  150  A    between atoms: _391  and  _393
REMARK  151  A    between atoms: _393  and  _394
REMARK  152  A    between atoms: _393  and  _396
REMARK  153  A    between atoms: _396  and  _397
REMARK  154  A    between atoms: _397  and  _398
REMARK  155  A    between atoms: _400  and  _402
REMARK  156  A    between atoms: _402  and  _403
REMARK  157  A    between atoms: _402  and  _405
REMARK  158  A    between atoms: _405  and  _406
REMARK  159  A    between atoms: _411  and  _412
REMARK  160  A    between atoms: _414  and  _416
REMARK  161  A    between atoms: _416  and  _417
REMARK  162  A    between atoms: _416  and  _419
REMARK  163  A    between atoms: _419  and  _420
REMARK  164  A    between atoms: _423  and  _425
REMARK  165  A    between atoms: _425  and  _426
REMARK  166  A    between atoms: _429  and  _431
REMARK  167  A    between atoms: _431  and  _432
REMARK  168  A    between atoms: _434  and  _436
REMARK  169  A    between atoms: _436  and  _437
REMARK  170  A    between atoms: _436  and  _439
REMARK  171  A    between atoms: _439  and  _440
REMARK  172  A    between atoms: _445  and  _446
REMARK  173  A    between atoms: _448  and  _450
REMARK  174  A    between atoms: _450  and  _451
REMARK  175  A    between atoms: _450  and  _453
REMARK  176  A    between atoms: _453  and  _454
REMARK  177  A    between atoms: _459  and  _461
REMARK  178  A    between atoms: _461  and  _462
REMARK  179  A    between atoms: _461  and  _464
REMARK  180  A    between atoms: _466  and  _468
REMARK  181  A    between atoms: _468  and  _469
REMARK  182  A    between atoms: _468  and  _471
REMARK  183  A    between atoms: _471  and  _472
REMARK  184  A    between atoms: _472  and  _473
REMARK  185  A    between atoms: _473  and  _474
REMARK  186  A    between atoms: _483  and  _485
REMARK  187  A    between atoms: _485  and  _486
REMARK  188  A    between atoms: _489  and  _491
REMARK  189  A    between atoms: _491  and  _492
REMARK  190  A    between atoms: _495  and  _497
REMARK  191  A    between atoms: _497  and  _498
REMARK  192  A    between atoms: _497  and  _500
REMARK  193  A    between atoms: _500  and  _501
REMARK  194  A    between atoms: _511  and  _513
REMARK  195  A    between atoms: _513  and  _514
REMARK  196  A    between atoms: _513  and  _516
REMARK  197  A    between atoms: _516  and  _517
REMARK  198  A    between atoms: _520  and  _522
REMARK  199  A    between atoms: _522  and  _523
REMARK  200  A    between atoms: _522  and  _525
REMARK  201  A    between atoms: _525  and  _526
REMARK  202  A    between atoms: _526  and  _527
REMARK  203  A    between atoms: _530  and  _532
REMARK  204  A    between atoms: _532  and  _533
REMARK  205  A    between atoms: _532  and  _535
REMARK  206  A    between atoms: _535  and  _536
REMARK  207  A    between atoms: _539  and  _541
REMARK  208  A    between atoms: _541  and  _542
REMARK  209  A    between atoms: _541  and  _544
REMARK  210  A    between atoms: _544  and  _545
REMARK  211  A    between atoms: _545  and  _546
REMARK  212  A    between atoms: _546  and  _547
REMARK  213  A    between atoms: _547  and  _548
REMARK  214  A    between atoms: _552  and  _554
REMARK  215  A    between atoms: _554  and  _555
REMARK  216  A    between atoms: _554  and  _557
REMARK  217  A    between atoms: _557  and  _558
REMARK  218  A    between atoms: _558  and  _559
REMARK  219  A    between atoms: _562  and  _564
REMARK  220  A    between atoms: _564  and  _565
REMARK  221  A    between atoms: _564  and  _567
REMARK  222  A    between atoms: _567  and  _568
REMARK  223  A    between atoms: _574  and  _576
REMARK  224  A    between atoms: _576  and  _577
REMARK  225  A    between atoms: _576  and  _579
REMARK  226  A    between atoms: _579  and  _580
REMARK  227  A    between atoms: _586  and  _588
REMARK  228  A    between atoms: _588  and  _589
REMARK  229  A    between atoms: _588  and  _591
REMARK  230  A    between atoms: _591  and  _592
REMARK  231  A    between atoms: _592  and  _593
REMARK  232  A    between atoms: _596  and  _598
REMARK  233  A    between atoms: _598  and  _599
REMARK  234  A    between atoms: _598  and  _601
REMARK  235  A    between atoms: _604  and  _606
REMARK  236  A    between atoms: _606  and  _607
REMARK  237  A    between atoms: _610  and  _612
REMARK  238  A    between atoms: _612  and  _613
REMARK  239  A    between atoms: _612  and  _615
REMARK  240  A    between atoms: _615  and  _616
REMARK  241  A    between atoms: _619  and  _621
REMARK  242  A    between atoms: _621  and  _622
REMARK  243  A    between atoms: _621  and  _624
REMARK  244  A    between atoms: _627  and  _629
REMARK  245  A    between atoms: _629  and  _630
REMARK  246  A    between atoms: _629  and  _632
REMARK  247  A    between atoms: _632  and  _633
REMARK                            x       y       z     vdW  Elec       q    Type
REMARK                         _______ _______ _______ _____ _____    ______ ____
ROOT
ATOM      1  O   HOH     1      10.618  10.294   3.972  0.00  0.00    +0.000 OA
ENDROOT
TORSDOF 0
REMARK  Name = ../refined-set-2016/4x5y/4x5y_pocket.pdb
REMARK  247 active torsions:
REMARK  status: ('A' for Active; 'I' for Inactive)
REMARK    1  A    between atoms: _1  and  _3
REMARK    2  A    between atoms: _3  and  _4
REMARK    3  A    between atoms: _3  and  _6
REMARK    4  A    between atoms: _6  and  _7
REMARK    5  A    between atoms: _10  and  _12
REMARK    6  A    between atoms: _12  and  _13
REMARK    7  A    between atoms: _12  and  _15
REMARK    8  A    between atoms: _15  and  _16
REMARK    9  A    between atoms: _18  and  _20
REMARK   10  A    between atoms: _20  and  _21
REMARK   11  A    between atoms: _20  and  _23
REMARK   12  A    between atoms: _23  and  _24
REMARK   13  A    between atoms: _26  and  _28
REMARK   14  A    between atoms: _28  and  _29
REMARK   15  A    between atoms: _31  and  _33
REMARK   16  A    between atoms: _33  and  _34
REMARK   17  A    between atoms: _37  and  _39
REMARK   18  A    between atoms: _39  and  _40
REMARK   19  A    between atoms: _39  and  _42
REMARK   20  A    between atoms: _42  and  _43
REMARK   21  A    between atoms: _49  and  _51
REMARK   22  A    between atoms: _51  and  _52
REMARK   23  A    between atoms: _51  and  _54
REMARK   24  A    between atoms: _54  and  _55
REMARK   25  A    between atoms: _58  and  _60
REMARK   26  A    between atoms: _60  and  _61
REMARK   27  A    between atoms: _64  and  _66
REMARK   28  A    between atoms: _66  and  _67
REMARK   29  A    between atoms: _66  and  _69
REMARK   30  A    between atoms: _69  and  _70
REMARK   31  A    between atoms: _73  and  _75
REMARK   32  A    between atoms: _75  and  _76
REMARK   33  A    between atoms: _75  and  _78
REMARK   34  A    between atoms: _78  and  _79
REMARK   35  A    between atoms: _81  and  _83
REMARK   36  A    between atoms: _83  and  _84
REMARK   37  A    between atoms: _83  and  _86
REMARK   38  A    between atoms: _86  and  _87
REMARK   39  A    between atoms: _87  and  _88
REMARK   40  A    between atoms: _91  and  _93
REMARK   41  A    between atoms: _93  and  _94
REMARK   42  A    between atoms: _93  and  _96
REMARK   43  A    between atoms: _96  and  _97
REMARK   44  A    between atoms: _100  and  _102
REMARK   45  A    between atoms: _102  and  _103
REMARK   46  A    between atoms: _102  and  _105
REMARK   47  A    between atoms: _105  and  _106
REMARK   48  A    between atoms: _111  and  _113
REMARK   49  A    between atoms: _113  and  _114
REMARK   50  A    between atoms: _117  and  _119
REMARK   51  A    between atoms: _119  and  _120
REMARK   52  A    between atoms: _119  and  _122
REMARK   53  A    between atoms: _122  and  _123
REMARK   54  A    between atoms: _133  and  _135
REMARK   55  A    between atoms: _135  and  _136
REMARK   56  A    between atoms: _135  and  _138
REMARK   57  A    between atoms: _138  and  _139
REMARK   58  A    between atoms: _142  and  _144
REMARK   59  A    between atoms: _144  and  _145
REMARK   60  A    between atoms: _144  and  _147
REMARK   61  A    between atoms: _147  and  _148
REMARK   62  A    between atoms: _158  and  _160
REMARK   63  A    between atoms: _160  and  _161
REMARK   64  A    between atoms: _160  and  _163
REMARK   65  A    between atoms: _163  and  _164
REMARK   66  A    between atoms: _169  and  _171
REMARK   67  A    between atoms: _171  and  _172
REMARK   68  A    between atoms: _174  and  _176
REMARK   69  A    between atoms: _176  and  _177
REMARK   70  A    between atoms: _176  and  _179
REMARK   71  A    between atoms: _179  and  _180
REMARK   72  A    between atoms: _190  and  _192
REMARK   73  A    between atoms: _192  and  _193
REMARK   74  A    between atoms: _192  and  _195
REMARK   75  A    between atoms: _195  and  _196
REMARK   76  A    between atoms: _199  and  _201
REMARK   77  A    between atoms: _201  and  _202
REMARK   78  A    between atoms: _201  and  _204
REMARK   79  A    between atoms: _204  and  _205
REMARK   80  A    between atoms: _205  and  _206
REMARK   81  A    between atoms: _208  and  _210
REMARK   82  A    between atoms: _210  and  _211
REMARK   83  A    between atoms: _210  and  _213
REMARK   84  A    between atoms: _215  and  _217
REMARK   85  A    between atoms: _217  and  _218
REMARK   86  A    between atoms: _221  and  _223
REMARK   87  A    between atoms: _223  and  _224
REMARK   88  A    between atoms: _223  and  _226
REMARK   89  A    between atoms: _226  and  _227
REMARK   90  A    between atoms: _233  and  _235
REMARK   91  A    between atoms: _235  and  _236
REMARK   92  A    between atoms: _235  and  _238
REMARK   93  A    between atoms: _238  and  _239
REMARK   94  A    between atoms: _239  and  _240
REMARK   95  A    between atoms: _242  and  _244
REMARK   96  A    between atoms: _244  and  _245
REMARK   97  A    between atoms: _244  and  _247
REMARK   98  A    between atoms: _250  and  _252
REMARK   99  A    between atoms: _252  and  _253
REMARK  100  A    between atoms: _252  and  _255
REMARK  101  A    between atoms: _257  and  _259
REMARK  102  A    between atoms: _259  and  _260
REMARK  103  A    between atoms: _263  and  _265
REMARK  104  A    between atoms: _265  and  _266
REMARK  105  A    between atoms: _265  and  _268
REMARK  106  A    between atoms: _268  and  _269
REMARK  107  A    between atoms: _274  and  _275
REMARK  108  A    between atoms: _278  and  _279
REMARK  109  A    between atoms: _284  and  _286
REMARK  110  A    between atoms: _286  and  _287
REMARK  111  A    between atoms: _286  and  _289
REMARK  112  A    between atoms: _289  and  _290
REMARK  113  A    between atoms: _290  and  _291
REMARK  114  A    between atoms: _293  and  _295
REMARK  115  A    between atoms: _295  and  _296
REMARK  116  A    between atoms: _299  and  _301
REMARK  117  A    between atoms: _301  and  _302
REMARK  118  A    between atoms: _301  and  _304
REMARK  119  A    between atoms: _304  and  _305
REMARK  120  A    between atoms: _308  and  _310
REMARK  121  A    between atoms: _310  and  _311
REMARK  122  A    between atoms: _313  and  _315
REMARK  123  A    between atoms: _315  and  _316
REMARK  124  A    between atoms: _315  and  _318
REMARK  125  A    between atoms: _318  and  _319
REMARK  126  A    between atoms: _324  and  _326
REMARK  127  A    between atoms: _326  and  _327
REMARK  128  A    between atoms: _326  and  _329
REMARK  129  A    between atoms: _329  and  _330
REMARK  130  A    between atoms: _333  and  _335
REMARK  131  A    between atoms: _335  and  _336
REMARK  132  A    between atoms: _335  and  _338
REMARK  133  A    between atoms: _338  and  _339
REMARK  134  A    between atoms: _344  and  _345
REMARK  135  A    between atoms: _347  and  _349
REMARK  136  A    between atoms: _349  and  _350
REMARK  137  A    between atoms: _349  and  _352
REMARK  138  A    between atoms: _352  and  _353
REMARK  139  A    between atoms: _356  and  _358
REMARK  140  A    between atoms: _358  and  _359
REMARK  141  A    between atoms: _358  and  _361
REMARK  142  A    between atoms: _361  and  _362
REMARK  143  A    between atoms: _367  and  _368
REMARK  144  A    between atoms: _371  and  _372
REMARK  145  A    between atoms: _377  and  _379
REMARK  146  A    between atoms: _379  and  _380
REMARK  147  A    between atoms: _379  and  _382
REMARK  148  A    between atoms: _382  and  _383
REMARK  149  A    between atoms: _388  and  _389
REMARK  150  A    between atoms: _391  and  _393
REMARK  151  A    between atoms: _393  and  _394
REMARK  152  A    between atoms: _393  and  _396
REMARK  153  A    between atoms: _396  and  _397
REMARK  154  A    between atoms: _397  and  _398
REMARK  155  A    between atoms: _400  and  _402
REMARK  156  A    between atoms: _402  and  _403
REMARK  157  A    between atoms: _402  and  _405
REMARK  158  A    between atoms: _405  and  _406
REMARK  159  A    between atoms: _411  and  _412
REMARK  160  A    between atoms: _414  and  _416
REMARK  161  A    between atoms: _416  and  _417
REMARK  162  A    between atoms: _416  and  _419
REMARK  163  A    between atoms: _419  and  _420
REMARK  164  A    between atoms: _423  and  _425
REMARK  165  A    between atoms: _425  and  _426
REMARK  166  A    between atoms: _429  and  _431
REMARK  167  A    between atoms: _431  and  _432
REMARK  168  A    between atoms: _434  and  _436
REMARK  169  A    between atoms: _436  and  _437
REMARK  170  A    between atoms: _436  and  _439
REMARK  171  A    between atoms: _439  and  _440
REMARK  172  A    between atoms: _445  and  _446
REMARK  173  A    between atoms: _448  and  _450
REMARK  174  A    between atoms: _450  and  _451
REMARK  175  A    between atoms: _450  and  _453
REMARK  176  A    between atoms: _453  and  _454
REMARK  177  A    between atoms: _459  and  _461
REMARK  178  A    between atoms: _461  and  _462
REMARK  179  A    between atoms: _461  and  _464
REMARK  180  A    between atoms: _466  and  _468
REMARK  181  A    between atoms: _468  and  _469
REMARK  182  A    between atoms: _468  and  _471
REMARK  183  A    between atoms: _471  and  _472
REMARK  184  A    between atoms: _472  and  _473
REMARK  185  A    between atoms: _473  and  _474
REMARK  186  A    between atoms: _483  and  _485
REMARK  187  A    between atoms: _485  and  _486
REMARK  188  A    between atoms: _489  and  _491
REMARK  189  A    between atoms: _491  and  _492
REMARK  190  A    between atoms: _495  and  _497
REMARK  191  A    between atoms: _497  and  _498
REMARK  192  A    between atoms: _497  and  _500
REMARK  193  A    between atoms: _500  and  _501
REMARK  194  A    between atoms: _511  and  _513
REMARK  195  A    between atoms: _513  and  _514
REMARK  196  A    between atoms: _513  and  _516
REMARK  197  A    between atoms: _516  and  _517
REMARK  198  A    between atoms: _520  and  _522
REMARK  199  A    between atoms: _522  and  _523
REMARK  200  A    between atoms: _522  and  _525
REMARK  201  A    between atoms: _525  and  _526
REMARK  202  A    between atoms: _526  and  _527
REMARK  203  A    between atoms: _530  and  _532
REMARK  204  A    between atoms: _532  and  _533
REMARK  205  A    between atoms: _532  and  _535
REMARK  206  A    between atoms: _535  and  _536
REMARK  207  A    between atoms: _539  and  _541
REMARK  208  A    between atoms: _541  and  _542
REMARK  209  A    between atoms: _541  and  _544
REMARK  210  A    between atoms: _544  and  _545
REMARK  211  A    between atoms: _545  and  _546
REMARK  212  A    between atoms: _546  and  _547
REMARK  213  A    between atoms: _547  and  _548
REMARK  214  A    between atoms: _552  and  _554
REMARK  215  A    between atoms: _554  and  _555
REMARK  216  A    between atoms: _554  and  _557
REMARK  217  A    between atoms: _557  and  _558
REMARK  218  A    between atoms: _558  and  _559
REMARK  219  A    between atoms: _562  and  _564
REMARK  220  A    between atoms: _564  and  _565
REMARK  221  A    between atoms: _564  and  _567
REMARK  222  A    between atoms: _567  and  _568
REMARK  223  A    between atoms: _574  and  _576
REMARK  224  A    between atoms: _576  and  _577
REMARK  225  A    between atoms: _576  and  _579
REMARK  226  A    between atoms: _579  and  _580
REMARK  227  A    between atoms: _586  and  _588
REMARK  228  A    between atoms: _588  and  _589
REMARK  229  A    between atoms: _588  and  _591
REMARK  230  A    between atoms: _591  and  _592
REMARK  231  A    between atoms: _592  and  _593
REMARK  232  A    between atoms: _596  and  _598
REMARK  233  A    between atoms: _598  and  _599
REMARK  234  A    between atoms: _598  and  _601
REMARK  235  A    between atoms: _604  and  _606
REMARK  236  A    between atoms: _606  and  _607
REMARK  237  A    between atoms: _610  and  _612
REMARK  238  A    between atoms: _612  and  _613
REMARK  239  A    between atoms: _612  and  _615
REMARK  240  A    between atoms: _615  and  _616
REMARK  241  A    between atoms: _619  and  _621
REMARK  242  A    between atoms: _621  and  _622
REMARK  243  A    between atoms: _621  and  _624
REMARK  244  A    between atoms: _627  and  _629
REMARK  245  A    between atoms: _629  and  _630
REMARK  246  A    between atoms: _629  and  _632
REMARK  247  A    between atoms: _632  and  _633
REMARK                            x       y       z     vdW  Elec       q    Type
REMARK                         _______ _______ _______ _____ _____    ______ ____
ROOT
ATOM      1  O   HOH     1       6.019  13.771   7.785  0.00  0.00    +0.000 OA
ENDROOT
TORSDOF 0
REMARK  Name = ../refined-set-2016/4x5y/4x5y_pocket.pdb
REMARK  247 active torsions:
REMARK  status: ('A' for Active; 'I' for Inactive)
REMARK    1  A    between atoms: _1  and  _3
REMARK    2  A    between atoms: _3  and  _4
REMARK    3  A    between atoms: _3  and  _6
REMARK    4  A    between atoms: _6  and  _7
REMARK    5  A    between atoms: _10  and  _12
REMARK    6  A    between atoms: _12  and  _13
REMARK    7  A    between atoms: _12  and  _15
REMARK    8  A    between atoms: _15  and  _16
REMARK    9  A    between atoms: _18  and  _20
REMARK   10  A    between atoms: _20  and  _21
REMARK   11  A    between atoms: _20  and  _23
REMARK   12  A    between atoms: _23  and  _24
REMARK   13  A    between atoms: _26  and  _28
REMARK   14  A    between atoms: _28  and  _29
REMARK   15  A    between atoms: _31  and  _33
REMARK   16  A    between atoms: _33  and  _34
REMARK   17  A    between atoms: _37  and  _39
REMARK   18  A    between atoms: _39  and  _40
REMARK   19  A    between atoms: _39  and  _42
REMARK   20  A    between atoms: _42  and  _43
REMARK   21  A    between atoms: _49  and  _51
REMARK   22  A    between atoms: _51  and  _52
REMARK   23  A    between atoms: _51  and  _54
REMARK   24  A    between atoms: _54  and  _55
REMARK   25  A    between atoms: _58  and  _60
REMARK   26  A    between atoms: _60  and  _61
REMARK   27  A    between atoms: _64  and  _66
REMARK   28  A    between atoms: _66  and  _67
REMARK   29  A    between atoms: _66  and  _69
REMARK   30  A    between atoms: _69  and  _70
REMARK   31  A    between atoms: _73  and  _75
REMARK   32  A    between atoms: _75  and  _76
REMARK   33  A    between atoms: _75  and  _78
REMARK   34  A    between atoms: _78  and  _79
REMARK   35  A    between atoms: _81  and  _83
REMARK   36  A    between atoms: _83  and  _84
REMARK   37  A    between atoms: _83  and  _86
REMARK   38  A    between atoms: _86  and  _87
REMARK   39  A    between atoms: _87  and  _88
REMARK   40  A    between atoms: _91  and  _93
REMARK   41  A    between atoms: _93  and  _94
REMARK   42  A    between atoms: _93  and  _96
REMARK   43  A    between atoms: _96  and  _97
REMARK   44  A    between atoms: _100  and  _102
REMARK   45  A    between atoms: _102  and  _103
REMARK   46  A    between atoms: _102  and  _105
REMARK   47  A    between atoms: _105  and  _106
REMARK   48  A    between atoms: _111  and  _113
REMARK   49  A    between atoms: _113  and  _114
REMARK   50  A    between atoms: _117  and  _119
REMARK   51  A    between atoms: _119  and  _120
REMARK   52  A    between atoms: _119  and  _122
REMARK   53  A    between atoms: _122  and  _123
REMARK   54  A    between atoms: _133  and  _135
REMARK   55  A    between atoms: _135  and  _136
REMARK   56  A    between atoms: _135  and  _138
REMARK   57  A    between atoms: _138  and  _139
REMARK   58  A    between atoms: _142  and  _144
REMARK   59  A    between atoms: _144  and  _145
REMARK   60  A    between atoms: _144  and  _147
REMARK   61  A    between atoms: _147  and  _148
REMARK   62  A    between atoms: _158  and  _160
REMARK   63  A    between atoms: _160  and  _161
REMARK   64  A    between atoms: _160  and  _163
REMARK   65  A    between atoms: _163  and  _164
REMARK   66  A    between atoms: _169  and  _171
REMARK   67  A    between atoms: _171  and  _172
REMARK   68  A    between atoms: _174  and  _176
REMARK   69  A    between atoms: _176  and  _177
REMARK   70  A    between atoms: _176  and  _179
REMARK   71  A    between atoms: _179  and  _180
REMARK   72  A    between atoms: _190  and  _192
REMARK   73  A    between atoms: _192  and  _193
REMARK   74  A    between atoms: _192  and  _195
REMARK   75  A    between atoms: _195  and  _196
REMARK   76  A    between atoms: _199  and  _201
REMARK   77  A    between atoms: _201  and  _202
REMARK   78  A    between atoms: _201  and  _204
REMARK   79  A    between atoms: _204  and  _205
REMARK   80  A    between atoms: _205  and  _206
REMARK   81  A    between atoms: _208  and  _210
REMARK   82  A    between atoms: _210  and  _211
REMARK   83  A    between atoms: _210  and  _213
REMARK   84  A    between atoms: _215  and  _217
REMARK   85  A    between atoms: _217  and  _218
REMARK   86  A    between atoms: _221  and  _223
REMARK   87  A    between atoms: _223  and  _224
REMARK   88  A    between atoms: _223  and  _226
REMARK   89  A    between atoms: _226  and  _227
REMARK   90  A    between atoms: _233  and  _235
REMARK   91  A    between atoms: _235  and  _236
REMARK   92  A    between atoms: _235  and  _238
REMARK   93  A    between atoms: _238  and  _239
REMARK   94  A    between atoms: _239  and  _240
REMARK   95  A    between atoms: _242  and  _244
REMARK   96  A    between atoms: _244  and  _245
REMARK   97  A    between atoms: _244  and  _247
REMARK   98  A    between atoms: _250  and  _252
REMARK   99  A    between atoms: _252  and  _253
REMARK  100  A    between atoms: _252  and  _255
REMARK  101  A    between atoms: _257  and  _259
REMARK  102  A    between atoms: _259  and  _260
REMARK  103  A    between atoms: _263  and  _265
REMARK  104  A    between atoms: _265  and  _266
REMARK  105  A    between atoms: _265  and  _268
REMARK  106  A    between atoms: _268  and  _269
REMARK  107  A    between atoms: _274  and  _275
REMARK  108  A    between atoms: _278  and  _279
REMARK  109  A    between atoms: _284  and  _286
REMARK  110  A    between atoms: _286  and  _287
REMARK  111  A    between atoms: _286  and  _289
REMARK  112  A    between atoms: _289  and  _290
REMARK  113  A    between atoms: _290  and  _291
REMARK  114  A    between atoms: _293  and  _295
REMARK  115  A    between atoms: _295  and  _296
REMARK  116  A    between atoms: _299  and  _301
REMARK  117  A    between atoms: _301  and  _302
REMARK  118  A    between atoms: _301  and  _304
REMARK  119  A    between atoms: _304  and  _305
REMARK  120  A    between atoms: _308  and  _310
REMARK  121  A    between atoms: _310  and  _311
REMARK  122  A    between atoms: _313  and  _315
REMARK  123  A    between atoms: _315  and  _316
REMARK  124  A    between atoms: _315  and  _318
REMARK  125  A    between atoms: _318  and  _319
REMARK  126  A    between atoms: _324  and  _326
REMARK  127  A    between atoms: _326  and  _327
REMARK  128  A    between atoms: _326  and  _329
REMARK  129  A    between atoms: _329  and  _330
REMARK  130  A    between atoms: _333  and  _335
REMARK  131  A    between atoms: _335  and  _336
REMARK  132  A    between atoms: _335  and  _338
REMARK  133  A    between atoms: _338  and  _339
REMARK  134  A    between atoms: _344  and  _345
REMARK  135  A    between atoms: _347  and  _349
REMARK  136  A    between atoms: _349  and  _350
REMARK  137  A    between atoms: _349  and  _352
REMARK  138  A    between atoms: _352  and  _353
REMARK  139  A    between atoms: _356  and  _358
REMARK  140  A    between atoms: _358  and  _359
REMARK  141  A    between atoms: _358  and  _361
REMARK  142  A    between atoms: _361  and  _362
REMARK  143  A    between atoms: _367  and  _368
REMARK  144  A    between atoms: _371  and  _372
REMARK  145  A    between atoms: _377  and  _379
REMARK  146  A    between atoms: _379  and  _380
REMARK  147  A    between atoms: _379  and  _382
REMARK  148  A    between atoms: _382  and  _383
REMARK  149  A    between atoms: _388  and  _389
REMARK  150  A    between atoms: _391  and  _393
REMARK  151  A    between atoms: _393  and  _394
REMARK  152  A    between atoms: _393  and  _396
REMARK  153  A    between atoms: _396  and  _397
REMARK  154  A    between atoms: _397  and  _398
REMARK  155  A    between atoms: _400  and  _402
REMARK  156  A    between atoms: _402  and  _403
REMARK  157  A    between atoms: _402  and  _405
REMARK  158  A    between atoms: _405  and  _406
REMARK  159  A    between atoms: _411  and  _412
REMARK  160  A    between atoms: _414  and  _416
REMARK  161  A    between atoms: _416  and  _417
REMARK  162  A    between atoms: _416  and  _419
REMARK  163  A    between atoms: _419  and  _420
REMARK  164  A    between atoms: _423  and  _425
REMARK  165  A    between atoms: _425  and  _426
REMARK  166  A    between atoms: _429  and  _431
REMARK  167  A    between atoms: _431  and  _432
REMARK  168  A    between atoms: _434  and  _436
REMARK  169  A    between atoms: _436  and  _437
REMARK  170  A    between atoms: _436  and  _439
REMARK  171  A    between atoms: _439  and  _440
REMARK  172  A    between atoms: _445  and  _446
REMARK  173  A    between atoms: _448  and  _450
REMARK  174  A    between atoms: _450  and  _451
REMARK  175  A    between atoms: _450  and  _453
REMARK  176  A    between atoms: _453  and  _454
REMARK  177  A    between atoms: _459  and  _461
REMARK  178  A    between atoms: _461  and  _462
REMARK  179  A    between atoms: _461  and  _464
REMARK  180  A    between atoms: _466  and  _468
REMARK  181  A    between atoms: _468  and  _469
REMARK  182  A    between atoms: _468  and  _471
REMARK  183  A    between atoms: _471  and  _472
REMARK  184  A    between atoms: _472  and  _473
REMARK  185  A    between atoms: _473  and  _474
REMARK  186  A    between atoms: _483  and  _485
REMARK  187  A    between atoms: _485  and  _486
REMARK  188  A    between atoms: _489  and  _491
REMARK  189  A    between atoms: _491  and  _492
REMARK  190  A    between atoms: _495  and  _497
REMARK  191  A    between atoms: _497  and  _498
REMARK  192  A    between atoms: _497  and  _500
REMARK  193  A    between atoms: _500  and  _501
REMARK  194  A    between atoms: _511  and  _513
REMARK  195  A    between atoms: _513  and  _514
REMARK  196  A    between atoms: _513  and  _516
REMARK  197  A    between atoms: _516  and  _517
REMARK  198  A    between atoms: _520  and  _522
REMARK  199  A    between atoms: _522  and  _523
REMARK  200  A    between atoms: _522  and  _525
REMARK  201  A    between atoms: _525  and  _526
REMARK  202  A    between atoms: _526  and  _527
REMARK  203  A    between atoms: _530  and  _532
REMARK  204  A    between atoms: _532  and  _533
REMARK  205  A    between atoms: _532  and  _535
REMARK  206  A    between atoms: _535  and  _536
REMARK  207  A    between atoms: _539  and  _541
REMARK  208  A    between atoms: _541  and  _542
REMARK  209  A    between atoms: _541  and  _544
REMARK  210  A    between atoms: _544  and  _545
REMARK  211  A    between atoms: _545  and  _546
REMARK  212  A    between atoms: _546  and  _547
REMARK  213  A    between atoms: _547  and  _548
REMARK  214  A    between atoms: _552  and  _554
REMARK  215  A    between atoms: _554  and  _555
REMARK  216  A    between atoms: _554  and  _557
REMARK  217  A    between atoms: _557  and  _558
REMARK  218  A    between atoms: _558  and  _559
REMARK  219  A    between atoms: _562  and  _564
REMARK  220  A    between atoms: _564  and  _565
REMARK  221  A    between atoms: _564  and  _567
REMARK  222  A    between atoms: _567  and  _568
REMARK  223  A    between atoms: _574  and  _576
REMARK  224  A    between atoms: _576  and  _577
REMARK  225  A    between atoms: _576  and  _579
REMARK  226  A    between atoms: _579  and  _580
REMARK  227  A    between atoms: _586  and  _588
REMARK  228  A    between atoms: _588  and  _589
REMARK  229  A    between atoms: _588  and  _591
REMARK  230  A    between atoms: _591  and  _592
REMARK  231  A    between atoms: _592  and  _593
REMARK  232  A    between atoms: _596  and  _598
REMARK  233  A    between atoms: _598  and  _599
REMARK  234  A    between atoms: _598  and  _601
REMARK  235  A    between atoms: _604  and  _606
REMARK  236  A    between atoms: _606  and  _607
REMARK  237  A    between atoms: _610  and  _612
REMARK  238  A    between atoms: _612  and  _613
REMARK  239  A    between atoms: _612  and  _615
REMARK  240  A    between atoms: _615  and  _616
REMARK  241  A    between atoms: _619  and  _621
REMARK  242  A    between atoms: _621  and  _622
REMARK  243  A    between atoms: _621  and  _624
REMARK  244  A    between atoms: _627  and  _629
REMARK  245  A    between atoms: _629  and  _630
REMARK  246  A    between atoms: _629  and  _632
REMARK  247  A    between atoms: _632  and  _633
REMARK                            x       y       z     vdW  Elec       q    Type
REMARK                         _______ _______ _______ _____ _____    ______ ____
ROOT
ATOM      1  O   HOH     1       7.763  12.325   9.118  0.00  0.00    +0.000 OA
ENDROOT
TORSDOF 0
REMARK  Name = ../refined-set-2016/4x5y/4x5y_pocket.pdb
REMARK  247 active torsions:
REMARK  status: ('A' for Active; 'I' for Inactive)
REMARK    1  A    between atoms: _1  and  _3
REMARK    2  A    between atoms: _3  and  _4
REMARK    3  A    between atoms: _3  and  _6
REMARK    4  A    between atoms: _6  and  _7
REMARK    5  A    between atoms: _10  and  _12
REMARK    6  A    between atoms: _12  and  _13
REMARK    7  A    between atoms: _12  and  _15
REMARK    8  A    between atoms: _15  and  _16
REMARK    9  A    between atoms: _18  and  _20
REMARK   10  A    between atoms: _20  and  _21
REMARK   11  A    between atoms: _20  and  _23
REMARK   12  A    between atoms: _23  and  _24
REMARK   13  A    between atoms: _26  and  _28
REMARK   14  A    between atoms: _28  and  _29
REMARK   15  A    between atoms: _31  and  _33
REMARK   16  A    between atoms: _33  and  _34
REMARK   17  A    between atoms: _37  and  _39
REMARK   18  A    between atoms: _39  and  _40
REMARK   19  A    between atoms: _39  and  _42
REMARK   20  A    between atoms: _42  and  _43
REMARK   21  A    between atoms: _49  and  _51
REMARK   22  A    between atoms: _51  and  _52
REMARK   23  A    between atoms: _51  and  _54
REMARK   24  A    between atoms: _54  and  _55
REMARK   25  A    between atoms: _58  and  _60
REMARK   26  A    between atoms: _60  and  _61
REMARK   27  A    between atoms: _64  and  _66
REMARK   28  A    between atoms: _66  and  _67
REMARK   29  A    between atoms: _66  and  _69
REMARK   30  A    between atoms: _69  and  _70
REMARK   31  A    between atoms: _73  and  _75
REMARK   32  A    between atoms: _75  and  _76
REMARK   33  A    between atoms: _75  and  _78
REMARK   34  A    between atoms: _78  and  _79
REMARK   35  A    between atoms: _81  and  _83
REMARK   36  A    between atoms: _83  and  _84
REMARK   37  A    between atoms: _83  and  _86
REMARK   38  A    between atoms: _86  and  _87
REMARK   39  A    between atoms: _87  and  _88
REMARK   40  A    between atoms: _91  and  _93
REMARK   41  A    between atoms: _93  and  _94
REMARK   42  A    between atoms: _93  and  _96
REMARK   43  A    between atoms: _96  and  _97
REMARK   44  A    between atoms: _100  and  _102
REMARK   45  A    between atoms: _102  and  _103
REMARK   46  A    between atoms: _102  and  _105
REMARK   47  A    between atoms: _105  and  _106
REMARK   48  A    between atoms: _111  and  _113
REMARK   49  A    between atoms: _113  and  _114
REMARK   50  A    between atoms: _117  and  _119
REMARK   51  A    between atoms: _119  and  _120
REMARK   52  A    between atoms: _119  and  _122
REMARK   53  A    between atoms: _122  and  _123
REMARK   54  A    between atoms: _133  and  _135
REMARK   55  A    between atoms: _135  and  _136
REMARK   56  A    between atoms: _135  and  _138
REMARK   57  A    between atoms: _138  and  _139
REMARK   58  A    between atoms: _142  and  _144
REMARK   59  A    between atoms: _144  and  _145
REMARK   60  A    between atoms: _144  and  _147
REMARK   61  A    between atoms: _147  and  _148
REMARK   62  A    between atoms: _158  and  _160
REMARK   63  A    between atoms: _160  and  _161
REMARK   64  A    between atoms: _160  and  _163
REMARK   65  A    between atoms: _163  and  _164
REMARK   66  A    between atoms: _169  and  _171
REMARK   67  A    between atoms: _171  and  _172
REMARK   68  A    between atoms: _174  and  _176
REMARK   69  A    between atoms: _176  and  _177
REMARK   70  A    between atoms: _176  and  _179
REMARK   71  A    between atoms: _179  and  _180
REMARK   72  A    between atoms: _190  and  _192
REMARK   73  A    between atoms: _192  and  _193
REMARK   74  A    between atoms: _192  and  _195
REMARK   75  A    between atoms: _195  and  _196
REMARK   76  A    between atoms: _199  and  _201
REMARK   77  A    between atoms: _201  and  _202
REMARK   78  A    between atoms: _201  and  _204
REMARK   79  A    between atoms: _204  and  _205
REMARK   80  A    between atoms: _205  and  _206
REMARK   81  A    between atoms: _208  and  _210
REMARK   82  A    between atoms: _210  and  _211
REMARK   83  A    between atoms: _210  and  _213
REMARK   84  A    between atoms: _215  and  _217
REMARK   85  A    between atoms: _217  and  _218
REMARK   86  A    between atoms: _221  and  _223
REMARK   87  A    between atoms: _223  and  _224
REMARK   88  A    between atoms: _223  and  _226
REMARK   89  A    between atoms: _226  and  _227
REMARK   90  A    between atoms: _233  and  _235
REMARK   91  A    between atoms: _235  and  _236
REMARK   92  A    between atoms: _235  and  _238
REMARK   93  A    between atoms: _238  and  _239
REMARK   94  A    between atoms: _239  and  _240
REMARK   95  A    between atoms: _242  and  _244
REMARK   96  A    between atoms: _244  and  _245
REMARK   97  A    between atoms: _244  and  _247
REMARK   98  A    between atoms: _250  and  _252
REMARK   99  A    between atoms: _252  and  _253
REMARK  100  A    between atoms: _252  and  _255
REMARK  101  A    between atoms: _257  and  _259
REMARK  102  A    between atoms: _259  and  _260
REMARK  103  A    between atoms: _263  and  _265
REMARK  104  A    between atoms: _265  and  _266
REMARK  105  A    between atoms: _265  and  _268
REMARK  106  A    between atoms: _268  and  _269
REMARK  107  A    between atoms: _274  and  _275
REMARK  108  A    between atoms: _278  and  _279
REMARK  109  A    between atoms: _284  and  _286
REMARK  110  A    between atoms: _286  and  _287
REMARK  111  A    between atoms: _286  and  _289
REMARK  112  A    between atoms: _289  and  _290
REMARK  113  A    between atoms: _290  and  _291
REMARK  114  A    between atoms: _293  and  _295
REMARK  115  A    between atoms: _295  and  _296
REMARK  116  A    between atoms: _299  and  _301
REMARK  117  A    between atoms: _301  and  _302
REMARK  118  A    between atoms: _301  and  _304
REMARK  119  A    between atoms: _304  and  _305
REMARK  120  A    between atoms: _308  and  _310
REMARK  121  A    between atoms: _310  and  _311
REMARK  122  A    between atoms: _313  and  _315
REMARK  123  A    between atoms: _315  and  _316
REMARK  124  A    between atoms: _315  and  _318
REMARK  125  A    between atoms: _318  and  _319
REMARK  126  A    between atoms: _324  and  _326
REMARK  127  A    between atoms: _326  and  _327
REMARK  128  A    between atoms: _326  and  _329
REMARK  129  A    between atoms: _329  and  _330
REMARK  130  A    between atoms: _333  and  _335
REMARK  131  A    between atoms: _335  and  _336
REMARK  132  A    between atoms: _335  and  _338
REMARK  133  A    between atoms: _338  and  _339
REMARK  134  A    between atoms: _344  and  _345
REMARK  135  A    between atoms: _347  and  _349
REMARK  136  A    between atoms: _349  and  _350
REMARK  137  A    between atoms: _349  and  _352
REMARK  138  A    between atoms: _352  and  _353
REMARK  139  A    between atoms: _356  and  _358
REMARK  140  A    between atoms: _358  and  _359
REMARK  141  A    between atoms: _358  and  _361
REMARK  142  A    between atoms: _361  and  _362
REMARK  143  A    between atoms: _367  and  _368
REMARK  144  A    between atoms: _371  and  _372
REMARK  145  A    between atoms: _377  and  _379
REMARK  146  A    between atoms: _379  and  _380
REMARK  147  A    between atoms: _379  and  _382
REMARK  148  A    between atoms: _382  and  _383
REMARK  149  A    between atoms: _388  and  _389
REMARK  150  A    between atoms: _391  and  _393
REMARK  151  A    between atoms: _393  and  _394
REMARK  152  A    between atoms: _393  and  _396
REMARK  153  A    between atoms: _396  and  _397
REMARK  154  A    between atoms: _397  and  _398
REMARK  155  A    between atoms: _400  and  _402
REMARK  156  A    between atoms: _402  and  _403
REMARK  157  A    between atoms: _402  and  _405
REMARK  158  A    between atoms: _405  and  _406
REMARK  159  A    between atoms: _411  and  _412
REMARK  160  A    between atoms: _414  and  _416
REMARK  161  A    between atoms: _416  and  _417
REMARK  162  A    between atoms: _416  and  _419
REMARK  163  A    between atoms: _419  and  _420
REMARK  164  A    between atoms: _423  and  _425
REMARK  165  A    between atoms: _425  and  _426
REMARK  166  A    between atoms: _429  and  _431
REMARK  167  A    between atoms: _431  and  _432
REMARK  168  A    between atoms: _434  and  _436
REMARK  169  A    between atoms: _436  and  _437
REMARK  170  A    between atoms: _436  and  _439
REMARK  171  A    between atoms: _439  and  _440
REMARK  172  A    between atoms: _445  and  _446
REMARK  173  A    between atoms: _448  and  _450
REMARK  174  A    between atoms: _450  and  _451
REMARK  175  A    between atoms: _450  and  _453
REMARK  176  A    between atoms: _453  and  _454
REMARK  177  A    between atoms: _459  and  _461
REMARK  178  A    between atoms: _461  and  _462
REMARK  179  A    between atoms: _461  and  _464
REMARK  180  A    between atoms: _466  and  _468
REMARK  181  A    between atoms: _468  and  _469
REMARK  182  A    between atoms: _468  and  _471
REMARK  183  A    between atoms: _471  and  _472
REMARK  184  A    between atoms: _472  and  _473
REMARK  185  A    between atoms: _473  and  _474
REMARK  186  A    between atoms: _483  and  _485
REMARK  187  A    between atoms: _485  and  _486
REMARK  188  A    between atoms: _489  and  _491
REMARK  189  A    between atoms: _491  and  _492
REMARK  190  A    between atoms: _495  and  _497
REMARK  191  A    between atoms: _497  and  _498
REMARK  192  A    between atoms: _497  and  _500
REMARK  193  A    between atoms: _500  and  _501
REMARK  194  A    between atoms: _511  and  _513
REMARK  195  A    between atoms: _513  and  _514
REMARK  196  A    between atoms: _513  and  _516
REMARK  197  A    between atoms: _516  and  _517
REMARK  198  A    between atoms: _520  and  _522
REMARK  199  A    between atoms: _522  and  _523
REMARK  200  A    between atoms: _522  and  _525
REMARK  201  A    between atoms: _525  and  _526
REMARK  202  A    between atoms: _526  and  _527
REMARK  203  A    between atoms: _530  and  _532
REMARK  204  A    between atoms: _532  and  _533
REMARK  205  A    between atoms: _532  and  _535
REMARK  206  A    between atoms: _535  and  _536
REMARK  207  A    between atoms: _539  and  _541
REMARK  208  A    between atoms: _541  and  _542
REMARK  209  A    between atoms: _541  and  _544
REMARK  210  A    between atoms: _544  and  _545
REMARK  211  A    between atoms: _545  and  _546
REMARK  212  A    between atoms: _546  and  _547
REMARK  213  A    between atoms: _547  and  _548
REMARK  214  A    between atoms: _552  and  _554
REMARK  215  A    between atoms: _554  and  _555
REMARK  216  A    between atoms: _554  and  _557
REMARK  217  A    between atoms: _557  and  _558
REMARK  218  A    between atoms: _558  and  _559
REMARK  219  A    between atoms: _562  and  _564
REMARK  220  A    between atoms: _564  and  _565
REMARK  221  A    between atoms: _564  and  _567
REMARK  222  A    between atoms: _567  and  _568
REMARK  223  A    between atoms: _574  and  _576
REMARK  224  A    between atoms: _576  and  _577
REMARK  225  A    between atoms: _576  and  _579
REMARK  226  A    between atoms: _579  and  _580
REMARK  227  A    between atoms: _586  and  _588
REMARK  228  A    between atoms: _588  and  _589
REMARK  229  A    between atoms: _588  and  _591
REMARK  230  A    between atoms: _591  and  _592
REMARK  231  A    between atoms: _592  and  _593
REMARK  232  A    between atoms: _596  and  _598
REMARK  233  A    between atoms: _598  and  _599
REMARK  234  A    between atoms: _598  and  _601
REMARK  235  A    between atoms: _604  and  _606
REMARK  236  A    between atoms: _606  and  _607
REMARK  237  A    between atoms: _610  and  _612
REMARK  238  A    between atoms: _612  and  _613
REMARK  239  A    between atoms: _612  and  _615
REMARK  240  A    between atoms: _615  and  _616
REMARK  241  A    between atoms: _619  and  _621
REMARK  242  A    between atoms: _621  and  _622
REMARK  243  A    between atoms: _621  and  _624
REMARK  244  A    between atoms: _627  and  _629
REMARK  245  A    between atoms: _629  and  _630
REMARK  246  A    between atoms: _629  and  _632
REMARK  247  A    between atoms: _632  and  _633
REMARK                            x       y       z     vdW  Elec       q    Type
REMARK                         _______ _______ _______ _____ _____    ______ ____
ROOT
ATOM      1  O   HOH     1       9.587   9.739   9.019  0.00  0.00    +0.000 OA
ENDROOT
TORSDOF 0
REMARK  Name = ../refined-set-2016/4x5y/4x5y_pocket.pdb
REMARK  247 active torsions:
REMARK  status: ('A' for Active; 'I' for Inactive)
REMARK    1  A    between atoms: _1  and  _3
REMARK    2  A    between atoms: _3  and  _4
REMARK    3  A    between atoms: _3  and  _6
REMARK    4  A    between atoms: _6  and  _7
REMARK    5  A    between atoms: _10  and  _12
REMARK    6  A    between atoms: _12  and  _13
REMARK    7  A    between atoms: _12  and  _15
REMARK    8  A    between atoms: _15  and  _16
REMARK    9  A    between atoms: _18  and  _20
REMARK   10  A    between atoms: _20  and  _21
REMARK   11  A    between atoms: _20  and  _23
REMARK   12  A    between atoms: _23  and  _24
REMARK   13  A    between atoms: _26  and  _28
REMARK   14  A    between atoms: _28  and  _29
REMARK   15  A    between atoms: _31  and  _33
REMARK   16  A    between atoms: _33  and  _34
REMARK   17  A    between atoms: _37  and  _39
REMARK   18  A    between atoms: _39  and  _40
REMARK   19  A    between atoms: _39  and  _42
REMARK   20  A    between atoms: _42  and  _43
REMARK   21  A    between atoms: _49  and  _51
REMARK   22  A    between atoms: _51  and  _52
REMARK   23  A    between atoms: _51  and  _54
REMARK   24  A    between atoms: _54  and  _55
REMARK   25  A    between atoms: _58  and  _60
REMARK   26  A    between atoms: _60  and  _61
REMARK   27  A    between atoms: _64  and  _66
REMARK   28  A    between atoms: _66  and  _67
REMARK   29  A    between atoms: _66  and  _69
REMARK   30  A    between atoms: _69  and  _70
REMARK   31  A    between atoms: _73  and  _75
REMARK   32  A    between atoms: _75  and  _76
REMARK   33  A    between atoms: _75  and  _78
REMARK   34  A    between atoms: _78  and  _79
REMARK   35  A    between atoms: _81  and  _83
REMARK   36  A    between atoms: _83  and  _84
REMARK   37  A    between atoms: _83  and  _86
REMARK   38  A    between atoms: _86  and  _87
REMARK   39  A    between atoms: _87  and  _88
REMARK   40  A    between atoms: _91  and  _93
REMARK   41  A    between atoms: _93  and  _94
REMARK   42  A    between atoms: _93  and  _96
REMARK   43  A    between atoms: _96  and  _97
REMARK   44  A    between atoms: _100  and  _102
REMARK   45  A    between atoms: _102  and  _103
REMARK   46  A    between atoms: _102  and  _105
REMARK   47  A    between atoms: _105  and  _106
REMARK   48  A    between atoms: _111  and  _113
REMARK   49  A    between atoms: _113  and  _114
REMARK   50  A    between atoms: _117  and  _119
REMARK   51  A    between atoms: _119  and  _120
REMARK   52  A    between atoms: _119  and  _122
REMARK   53  A    between atoms: _122  and  _123
REMARK   54  A    between atoms: _133  and  _135
REMARK   55  A    between atoms: _135  and  _136
REMARK   56  A    between atoms: _135  and  _138
REMARK   57  A    between atoms: _138  and  _139
REMARK   58  A    between atoms: _142  and  _144
REMARK   59  A    between atoms: _144  and  _145
REMARK   60  A    between atoms: _144  and  _147
REMARK   61  A    between atoms: _147  and  _148
REMARK   62  A    between atoms: _158  and  _160
REMARK   63  A    between atoms: _160  and  _161
REMARK   64  A    between atoms: _160  and  _163
REMARK   65  A    between atoms: _163  and  _164
REMARK   66  A    between atoms: _169  and  _171
REMARK   67  A    between atoms: _171  and  _172
REMARK   68  A    between atoms: _174  and  _176
REMARK   69  A    between atoms: _176  and  _177
REMARK   70  A    between atoms: _176  and  _179
REMARK   71  A    between atoms: _179  and  _180
REMARK   72  A    between atoms: _190  and  _192
REMARK   73  A    between atoms: _192  and  _193
REMARK   74  A    between atoms: _192  and  _195
REMARK   75  A    between atoms: _195  and  _196
REMARK   76  A    between atoms: _199  and  _201
REMARK   77  A    between atoms: _201  and  _202
REMARK   78  A    between atoms: _201  and  _204
REMARK   79  A    between atoms: _204  and  _205
REMARK   80  A    between atoms: _205  and  _206
REMARK   81  A    between atoms: _208  and  _210
REMARK   82  A    between atoms: _210  and  _211
REMARK   83  A    between atoms: _210  and  _213
REMARK   84  A    between atoms: _215  and  _217
REMARK   85  A    between atoms: _217  and  _218
REMARK   86  A    between atoms: _221  and  _223
REMARK   87  A    between atoms: _223  and  _224
REMARK   88  A    between atoms: _223  and  _226
REMARK   89  A    between atoms: _226  and  _227
REMARK   90  A    between atoms: _233  and  _235
REMARK   91  A    between atoms: _235  and  _236
REMARK   92  A    between atoms: _235  and  _238
REMARK   93  A    between atoms: _238  and  _239
REMARK   94  A    between atoms: _239  and  _240
REMARK   95  A    between atoms: _242  and  _244
REMARK   96  A    between atoms: _244  and  _245
REMARK   97  A    between atoms: _244  and  _247
REMARK   98  A    between atoms: _250  and  _252
REMARK   99  A    between atoms: _252  and  _253
REMARK  100  A    between atoms: _252  and  _255
REMARK  101  A    between atoms: _257  and  _259
REMARK  102  A    between atoms: _259  and  _260
REMARK  103  A    between atoms: _263  and  _265
REMARK  104  A    between atoms: _265  and  _266
REMARK  105  A    between atoms: _265  and  _268
REMARK  106  A    between atoms: _268  and  _269
REMARK  107  A    between atoms: _274  and  _275
REMARK  108  A    between atoms: _278  and  _279
REMARK  109  A    between atoms: _284  and  _286
REMARK  110  A    between atoms: _286  and  _287
REMARK  111  A    between atoms: _286  and  _289
REMARK  112  A    between atoms: _289  and  _290
REMARK  113  A    between atoms: _290  and  _291
REMARK  114  A    between atoms: _293  and  _295
REMARK  115  A    between atoms: _295  and  _296
REMARK  116  A    between atoms: _299  and  _301
REMARK  117  A    between atoms: _301  and  _302
REMARK  118  A    between atoms: _301  and  _304
REMARK  119  A    between atoms: _304  and  _305
REMARK  120  A    between atoms: _308  and  _310
REMARK  121  A    between atoms: _310  and  _311
REMARK  122  A    between atoms: _313  and  _315
REMARK  123  A    between atoms: _315  and  _316
REMARK  124  A    between atoms: _315  and  _318
REMARK  125  A    between atoms: _318  and  _319
REMARK  126  A    between atoms: _324  and  _326
REMARK  127  A    between atoms: _326  and  _327
REMARK  128  A    between atoms: _326  and  _329
REMARK  129  A    between atoms: _329  and  _330
REMARK  130  A    between atoms: _333  and  _335
REMARK  131  A    between atoms: _335  and  _336
REMARK  132  A    between atoms: _335  and  _338
REMARK  133  A    between atoms: _338  and  _339
REMARK  134  A    between atoms: _344  and  _345
REMARK  135  A    between atoms: _347  and  _349
REMARK  136  A    between atoms: _349  and  _350
REMARK  137  A    between atoms: _349  and  _352
REMARK  138  A    between atoms: _352  and  _353
REMARK  139  A    between atoms: _356  and  _358
REMARK  140  A    between atoms: _358  and  _359
REMARK  141  A    between atoms: _358  and  _361
REMARK  142  A    between atoms: _361  and  _362
REMARK  143  A    between atoms: _367  and  _368
REMARK  144  A    between atoms: _371  and  _372
REMARK  145  A    between atoms: _377  and  _379
REMARK  146  A    between atoms: _379  and  _380
REMARK  147  A    between atoms: _379  and  _382
REMARK  148  A    between atoms: _382  and  _383
REMARK  149  A    between atoms: _388  and  _389
REMARK  150  A    between atoms: _391  and  _393
REMARK  151  A    between atoms: _393  and  _394
REMARK  152  A    between atoms: _393  and  _396
REMARK  153  A    between atoms: _396  and  _397
REMARK  154  A    between atoms: _397  and  _398
REMARK  155  A    between atoms: _400  and  _402
REMARK  156  A    between atoms: _402  and  _403
REMARK  157  A    between atoms: _402  and  _405
REMARK  158  A    between atoms: _405  and  _406
REMARK  159  A    between atoms: _411  and  _412
REMARK  160  A    between atoms: _414  and  _416
REMARK  161  A    between atoms: _416  and  _417
REMARK  162  A    between atoms: _416  and  _419
REMARK  163  A    between atoms: _419  and  _420
REMARK  164  A    between atoms: _423  and  _425
REMARK  165  A    between atoms: _425  and  _426
REMARK  166  A    between atoms: _429  and  _431
REMARK  167  A    between atoms: _431  and  _432
REMARK  168  A    between atoms: _434  and  _436
REMARK  169  A    between atoms: _436  and  _437
REMARK  170  A    between atoms: _436  and  _439
REMARK  171  A    between atoms: _439  and  _440
REMARK  172  A    between atoms: _445  and  _446
REMARK  173  A    between atoms: _448  and  _450
REMARK  174  A    between atoms: _450  and  _451
REMARK  175  A    between atoms: _450  and  _453
REMARK  176  A    between atoms: _453  and  _454
REMARK  177  A    between atoms: _459  and  _461
REMARK  178  A    between atoms: _461  and  _462
REMARK  179  A    between atoms: _461  and  _464
REMARK  180  A    between atoms: _466  and  _468
REMARK  181  A    between atoms: _468  and  _469
REMARK  182  A    between atoms: _468  and  _471
REMARK  183  A    between atoms: _471  and  _472
REMARK  184  A    between atoms: _472  and  _473
REMARK  185  A    between atoms: _473  and  _474
REMARK  186  A    between atoms: _483  and  _485
REMARK  187  A    between atoms: _485  and  _486
REMARK  188  A    between atoms: _489  and  _491
REMARK  189  A    between atoms: _491  and  _492
REMARK  190  A    between atoms: _495  and  _497
REMARK  191  A    between atoms: _497  and  _498
REMARK  192  A    between atoms: _497  and  _500
REMARK  193  A    between atoms: _500  and  _501
REMARK  194  A    between atoms: _511  and  _513
REMARK  195  A    between atoms: _513  and  _514
REMARK  196  A    between atoms: _513  and  _516
REMARK  197  A    between atoms: _516  and  _517
REMARK  198  A    between atoms: _520  and  _522
REMARK  199  A    between atoms: _522  and  _523
REMARK  200  A    between atoms: _522  and  _525
REMARK  201  A    between atoms: _525  and  _526
REMARK  202  A    between atoms: _526  and  _527
REMARK  203  A    between atoms: _530  and  _532
REMARK  204  A    between atoms: _532  and  _533
REMARK  205  A    between atoms: _532  and  _535
REMARK  206  A    between atoms: _535  and  _536
REMARK  207  A    between atoms: _539  and  _541
REMARK  208  A    between atoms: _541  and  _542
REMARK  209  A    between atoms: _541  and  _544
REMARK  210  A    between atoms: _544  and  _545
REMARK  211  A    between atoms: _545  and  _546
REMARK  212  A    between atoms: _546  and  _547
REMARK  213  A    between atoms: _547  and  _548
REMARK  214  A    between atoms: _552  and  _554
REMARK  215  A    between atoms: _554  and  _555
REMARK  216  A    between atoms: _554  and  _557
REMARK  217  A    between atoms: _557  and  _558
REMARK  218  A    between atoms: _558  and  _559
REMARK  219  A    between atoms: _562  and  _564
REMARK  220  A    between atoms: _564  and  _565
REMARK  221  A    between atoms: _564  and  _567
REMARK  222  A    between atoms: _567  and  _568
REMARK  223  A    between atoms: _574  and  _576
REMARK  224  A    between atoms: _576  and  _577
REMARK  225  A    between atoms: _576  and  _579
REMARK  226  A    between atoms: _579  and  _580
REMARK  227  A    between atoms: _586  and  _588
REMARK  228  A    between atoms: _588  and  _589
REMARK  229  A    between atoms: _588  and  _591
REMARK  230  A    between atoms: _591  and  _592
REMARK  231  A    between atoms: _592  and  _593
REMARK  232  A    between atoms: _596  and  _598
REMARK  233  A    between atoms: _598  and  _599
REMARK  234  A    between atoms: _598  and  _601
REMARK  235  A    between atoms: _604  and  _606
REMARK  236  A    between atoms: _606  and  _607
REMARK  237  A    between atoms: _610  and  _612
REMARK  238  A    between atoms: _612  and  _613
REMARK  239  A    between atoms: _612  and  _615
REMARK  240  A    between atoms: _615  and  _616
REMARK  241  A    between atoms: _619  and  _621
REMARK  242  A    between atoms: _621  and  _622
REMARK  243  A    between atoms: _621  and  _624
REMARK  244  A    between atoms: _627  and  _629
REMARK  245  A    between atoms: _629  and  _630
REMARK  246  A    between atoms: _629  and  _632
REMARK  247  A    between atoms: _632  and  _633
REMARK                            x       y       z     vdW  Elec       q    Type
REMARK                         _______ _______ _______ _____ _____    ______ ____
ROOT
ATOM      1  O   HOH     1       5.561  19.486  11.065  0.00  0.00    +0.000 OA
ENDROOT
TORSDOF 0
