REMARK  Name = ../refined-set-2016/4a6l/4a6l_pocket.pdb
REMARK  225 active torsions:
REMARK  status: ('A' for Active; 'I' for Inactive)
REMARK    1  A    between atoms: _1  and  _5
REMARK    2  A    between atoms: _5  and  _6
REMARK    3  A    between atoms: _5  and  _8
REMARK    4  A    between atoms: _8  and  _9
REMARK    5  A    between atoms: _12  and  _14
REMARK    6  A    between atoms: _14  and  _15
REMARK    7  A    between atoms: _14  and  _17
REMARK    8  A    between atoms: _20  and  _22
REMARK    9  A    between atoms: _22  and  _23
REMARK   10  A    between atoms: _22  and  _25
REMARK   11  A    between atoms: _25  and  _26
REMARK   12  A    between atoms: _31  and  _33
REMARK   13  A    between atoms: _33  and  _34
REMARK   14  A    between atoms: _37  and  _39
REMARK   15  A    between atoms: _39  and  _40
REMARK   16  A    between atoms: _39  and  _42
REMARK   17  A    between atoms: _42  and  _43
REMARK   18  A    between atoms: _43  and  _44
REMARK   19  A    between atoms: _49  and  _51
REMARK   20  A    between atoms: _51  and  _52
REMARK   21  A    between atoms: _51  and  _54
REMARK   22  A    between atoms: _57  and  _59
REMARK   23  A    between atoms: _59  and  _60
REMARK   24  A    between atoms: _59  and  _62
REMARK   25  A    between atoms: _62  and  _63
REMARK   26  A    between atoms: _66  and  _68
REMARK   27  A    between atoms: _68  and  _69
REMARK   28  A    between atoms: _68  and  _71
REMARK   29  A    between atoms: _71  and  _72
REMARK   30  A    between atoms: _77  and  _79
REMARK   31  A    between atoms: _79  and  _80
REMARK   32  A    between atoms: _79  and  _82
REMARK   33  A    between atoms: _82  and  _83
REMARK   34  A    between atoms: _86  and  _88
REMARK   35  A    between atoms: _88  and  _89
REMARK   36  A    between atoms: _88  and  _91
REMARK   37  A    between atoms: _91  and  _92
REMARK   38  A    between atoms: _95  and  _97
REMARK   39  A    between atoms: _97  and  _98
REMARK   40  A    between atoms: _97  and  _100
REMARK   41  A    between atoms: _100  and  _101
REMARK   42  A    between atoms: _101  and  _102
REMARK   43  A    between atoms: _102  and  _103
REMARK   44  A    between atoms: _103  and  _104
REMARK   45  A    between atoms: _108  and  _110
REMARK   46  A    between atoms: _110  and  _111
REMARK   47  A    between atoms: _110  and  _113
REMARK   48  A    between atoms: _113  and  _114
REMARK   49  A    between atoms: _119  and  _120
REMARK   50  A    between atoms: _122  and  _124
REMARK   51  A    between atoms: _124  and  _125
REMARK   52  A    between atoms: _124  and  _127
REMARK   53  A    between atoms: _127  and  _128
REMARK   54  A    between atoms: _133  and  _135
REMARK   55  A    between atoms: _135  and  _136
REMARK   56  A    between atoms: _135  and  _138
REMARK   57  A    between atoms: _138  and  _139
REMARK   58  A    between atoms: _142  and  _144
REMARK   59  A    between atoms: _144  and  _145
REMARK   60  A    between atoms: _147  and  _149
REMARK   61  A    between atoms: _149  and  _150
REMARK   62  A    between atoms: _153  and  _155
REMARK   63  A    between atoms: _155  and  _156
REMARK   64  A    between atoms: _155  and  _158
REMARK   65  A    between atoms: _158  and  _159
REMARK   66  A    between atoms: _164  and  _165
REMARK   67  A    between atoms: _167  and  _169
REMARK   68  A    between atoms: _169  and  _170
REMARK   69  A    between atoms: _169  and  _172
REMARK   70  A    between atoms: _172  and  _173
REMARK   71  A    between atoms: _176  and  _178
REMARK   72  A    between atoms: _178  and  _179
REMARK   73  A    between atoms: _178  and  _181
REMARK   74  A    between atoms: _184  and  _186
REMARK   75  A    between atoms: _186  and  _187
REMARK   76  A    between atoms: _186  and  _189
REMARK   77  A    between atoms: _189  and  _190
REMARK   78  A    between atoms: _190  and  _191
REMARK   79  A    between atoms: _191  and  _192
REMARK   80  A    between atoms: _201  and  _203
REMARK   81  A    between atoms: _203  and  _204
REMARK   82  A    between atoms: _203  and  _206
REMARK   83  A    between atoms: _206  and  _207
REMARK   84  A    between atoms: _210  and  _212
REMARK   85  A    between atoms: _212  and  _213
REMARK   86  A    between atoms: _212  and  _215
REMARK   87  A    between atoms: _218  and  _220
REMARK   88  A    between atoms: _220  and  _221
REMARK   89  A    between atoms: _220  and  _223
REMARK   90  A    between atoms: _223  and  _224
REMARK   91  A    between atoms: _224  and  _225
REMARK   92  A    between atoms: _225  and  _226
REMARK   93  A    between atoms: _235  and  _237
REMARK   94  A    between atoms: _237  and  _238
REMARK   95  A    between atoms: _241  and  _243
REMARK   96  A    between atoms: _243  and  _244
REMARK   97  A    between atoms: _246  and  _248
REMARK   98  A    between atoms: _248  and  _249
REMARK   99  A    between atoms: _248  and  _251
REMARK  100  A    between atoms: _251  and  _252
REMARK  101  A    between atoms: _257  and  _259
REMARK  102  A    between atoms: _259  and  _260
REMARK  103  A    between atoms: _259  and  _262
REMARK  104  A    between atoms: _262  and  _263
REMARK  105  A    between atoms: _263  and  _264
REMARK  106  A    between atoms: _264  and  _265
REMARK  107  A    between atoms: _274  and  _276
REMARK  108  A    between atoms: _276  and  _277
REMARK  109  A    between atoms: _276  and  _279
REMARK  110  A    between atoms: _279  and  _280
REMARK  111  A    between atoms: _283  and  _285
REMARK  112  A    between atoms: _285  and  _286
REMARK  113  A    between atoms: _285  and  _288
REMARK  114  A    between atoms: _288  and  _289
REMARK  115  A    between atoms: _291  and  _293
REMARK  116  A    between atoms: _293  and  _294
REMARK  117  A    between atoms: _293  and  _296
REMARK  118  A    between atoms: _296  and  _297
REMARK  119  A    between atoms: _297  and  _408
REMARK  120  A    between atoms: _298  and  _300
REMARK  121  A    between atoms: _300  and  _301
REMARK  122  A    between atoms: _300  and  _303
REMARK  123  A    between atoms: _303  and  _304
REMARK  124  A    between atoms: _304  and  _305
REMARK  125  A    between atoms: _310  and  _312
REMARK  126  A    between atoms: _312  and  _313
REMARK  127  A    between atoms: _315  and  _317
REMARK  128  A    between atoms: _317  and  _318
REMARK  129  A    between atoms: _317  and  _320
REMARK  130  A    between atoms: _320  and  _321
REMARK  131  A    between atoms: _324  and  _326
REMARK  132  A    between atoms: _326  and  _327
REMARK  133  A    between atoms: _326  and  _329
REMARK  134  A    between atoms: _329  and  _330
REMARK  135  A    between atoms: _332  and  _334
REMARK  136  A    between atoms: _334  and  _335
REMARK  137  A    between atoms: _337  and  _339
REMARK  138  A    between atoms: _339  and  _340
REMARK  139  A    between atoms: _342  and  _344
REMARK  140  A    between atoms: _344  and  _345
REMARK  141  A    between atoms: _344  and  _347
REMARK  142  A    between atoms: _350  and  _352
REMARK  143  A    between atoms: _352  and  _353
REMARK  144  A    between atoms: _352  and  _355
REMARK  145  A    between atoms: _358  and  _360
REMARK  146  A    between atoms: _360  and  _361
REMARK  147  A    between atoms: _360  and  _363
REMARK  148  A    between atoms: _363  and  _364
REMARK  149  A    between atoms: _366  and  _368
REMARK  150  A    between atoms: _368  and  _369
REMARK  151  A    between atoms: _368  and  _371
REMARK  152  A    between atoms: _371  and  _372
REMARK  153  A    between atoms: _382  and  _384
REMARK  154  A    between atoms: _384  and  _385
REMARK  155  A    between atoms: _387  and  _389
REMARK  156  A    between atoms: _389  and  _390
REMARK  157  A    between atoms: _389  and  _392
REMARK  158  A    between atoms: _392  and  _393
REMARK  159  A    between atoms: _393  and  _394
REMARK  160  A    between atoms: _397  and  _399
REMARK  161  A    between atoms: _399  and  _400
REMARK  162  A    between atoms: _402  and  _404
REMARK  163  A    between atoms: _404  and  _405
REMARK  164  A    between atoms: _404  and  _407
REMARK  165  A    between atoms: _407  and  _408
REMARK  166  A    between atoms: _409  and  _411
REMARK  167  A    between atoms: _411  and  _412
REMARK  168  A    between atoms: _415  and  _417
REMARK  169  A    between atoms: _417  and  _418
REMARK  170  A    between atoms: _417  and  _420
REMARK  171  A    between atoms: _420  and  _421
REMARK  172  A    between atoms: _421  and  _422
REMARK  173  A    between atoms: _427  and  _429
REMARK  174  A    between atoms: _429  and  _430
REMARK  175  A    between atoms: _429  and  _432
REMARK  176  A    between atoms: _432  and  _433
REMARK  177  A    between atoms: _438  and  _440
REMARK  178  A    between atoms: _440  and  _441
REMARK  179  A    between atoms: _440  and  _443
REMARK  180  A    between atoms: _443  and  _444
REMARK  181  A    between atoms: _444  and  _445
REMARK  182  A    between atoms: _445  and  _446
REMARK  183  A    between atoms: _456  and  _457
REMARK  184  A    between atoms: _462  and  _464
REMARK  185  A    between atoms: _464  and  _465
REMARK  186  A    between atoms: _467  and  _469
REMARK  187  A    between atoms: _469  and  _470
REMARK  188  A    between atoms: _469  and  _472
REMARK  189  A    between atoms: _472  and  _473
REMARK  190  A    between atoms: _476  and  _478
REMARK  191  A    between atoms: _478  and  _479
REMARK  192  A    between atoms: _478  and  _481
REMARK  193  A    between atoms: _481  and  _482
REMARK  194  A    between atoms: _487  and  _488
REMARK  195  A    between atoms: _490  and  _492
REMARK  196  A    between atoms: _492  and  _493
REMARK  197  A    between atoms: _496  and  _497
REMARK  198  A    between atoms: _502  and  _504
REMARK  199  A    between atoms: _504  and  _505
REMARK  200  A    between atoms: _504  and  _507
REMARK  201  A    between atoms: _507  and  _508
REMARK  202  A    between atoms: _511  and  _513
REMARK  203  A    between atoms: _513  and  _514
REMARK  204  A    between atoms: _513  and  _516
REMARK  205  A    between atoms: _519  and  _521
REMARK  206  A    between atoms: _521  and  _522
REMARK  207  A    between atoms: _521  and  _524
REMARK  208  A    between atoms: _524  and  _525
REMARK  209  A    between atoms: _533  and  _534
REMARK  210  A    between atoms: _533  and  _536
REMARK  211  A    between atoms: _536  and  _537
REMARK  212  A    between atoms: _542  and  _543
REMARK  213  A    between atoms: _545  and  _547
REMARK  214  A    between atoms: _547  and  _548
REMARK  215  A    between atoms: _547  and  _550
REMARK  216  A    between atoms: _550  and  _551
REMARK  217  A    between atoms: _554  and  _556
REMARK  218  A    between atoms: _556  and  _557
REMARK  219  A    between atoms: _556  and  _559
REMARK  220  A    between atoms: _559  and  _560
REMARK  221  A    between atoms: _560  and  _561
REMARK  222  A    between atoms: _566  and  _568
REMARK  223  A    between atoms: _568  and  _569
REMARK  224  A    between atoms: _568  and  _571
REMARK  225  A    between atoms: _571  and  _572
REMARK                            x       y       z     vdW  Elec       q    Type
REMARK                         _______ _______ _______ _____ _____    ______ ____
ROOT
ATOM      1  C   ILE A   1       2.439  67.088  -8.943  0.00  0.00    +0.202 C 
ATOM      2  O   ILE A   1       3.672  67.157  -9.033  0.00  0.00    -0.277 OA
ATOM      3  N   VAL A   2       1.644  66.589  -9.901  0.00  0.00    -0.301 N 
ATOM      4  H   VAL A   2       0.624  66.547  -9.701  0.00  0.00    +0.150 HD
ENDROOT
BRANCH   1   5
ATOM      5  CA  ILE A   1       1.740  67.609  -7.687  0.00  0.00    +0.013 C 
BRANCH   5   6
ATOM      6  N   ILE A   1       2.257  66.882  -6.514  0.00  0.00    +0.387 N 
ATOM      7  H1  ILE A   1       1.785  67.232  -5.655  0.00  0.00    -0.089 HD
ATOM      8  H2  ILE A   1       3.282  67.037  -6.436  0.00  0.00    -0.089 HD
ATOM      9  H3  ILE A   1       2.067  65.866  -6.626  0.00  0.00    -0.089 HD
ENDBRANCH   5   6
BRANCH   5  10
ATOM     10  CB  ILE A   1       1.844  69.180  -7.532  0.00  0.00    -0.011 C 
ATOM     11  CG2 ILE A   1       1.612  69.947  -8.849  0.00  0.00    -0.002 C 
BRANCH  10  12
ATOM     12  CG1 ILE A   1       1.003  69.748  -6.345  0.00  0.00    -0.002 C 
ATOM     13  CD1 ILE A   1      -0.550  69.597  -6.442  0.00  0.00    -0.000 C 
ENDBRANCH  10  12
ENDBRANCH   5  10
ENDBRANCH   1   5
BRANCH   3  14
ATOM     14  CA  VAL A   2       2.095  66.098 -11.207  0.00  0.00    +0.137 C 
BRANCH  14  15
ATOM     15  CB  VAL A   2       1.324  64.825 -11.660  0.00  0.00    +0.026 C 
ATOM     16  CG2 VAL A   2       1.387  63.729 -10.585  0.00  0.00    +0.002 C 
ATOM     17  CG1 VAL A   2       1.873  64.300 -12.990  0.00  0.00    +0.002 C 
ENDBRANCH  14  15
BRANCH  14  18
ATOM     18  C   VAL A   2       1.943  67.265 -12.209  0.00  0.00    +0.227 C 
ATOM     19  O   VAL A   2       0.874  67.893 -12.280  0.00  0.00    -0.286 OA
ENDBRANCH  14  18
ENDBRANCH   3  14
TORSDOF 7
REMARK  Name = ../refined-set-2016/4a6l/4a6l_pocket.pdb
REMARK  225 active torsions:
REMARK  status: ('A' for Active; 'I' for Inactive)
REMARK    1  A    between atoms: _1  and  _5
REMARK    2  A    between atoms: _5  and  _6
REMARK    3  A    between atoms: _5  and  _8
REMARK    4  A    between atoms: _8  and  _9
REMARK    5  A    between atoms: _12  and  _14
REMARK    6  A    between atoms: _14  and  _15
REMARK    7  A    between atoms: _14  and  _17
REMARK    8  A    between atoms: _20  and  _22
REMARK    9  A    between atoms: _22  and  _23
REMARK   10  A    between atoms: _22  and  _25
REMARK   11  A    between atoms: _25  and  _26
REMARK   12  A    between atoms: _31  and  _33
REMARK   13  A    between atoms: _33  and  _34
REMARK   14  A    between atoms: _37  and  _39
REMARK   15  A    between atoms: _39  and  _40
REMARK   16  A    between atoms: _39  and  _42
REMARK   17  A    between atoms: _42  and  _43
REMARK   18  A    between atoms: _43  and  _44
REMARK   19  A    between atoms: _49  and  _51
REMARK   20  A    between atoms: _51  and  _52
REMARK   21  A    between atoms: _51  and  _54
REMARK   22  A    between atoms: _57  and  _59
REMARK   23  A    between atoms: _59  and  _60
REMARK   24  A    between atoms: _59  and  _62
REMARK   25  A    between atoms: _62  and  _63
REMARK   26  A    between atoms: _66  and  _68
REMARK   27  A    between atoms: _68  and  _69
REMARK   28  A    between atoms: _68  and  _71
REMARK   29  A    between atoms: _71  and  _72
REMARK   30  A    between atoms: _77  and  _79
REMARK   31  A    between atoms: _79  and  _80
REMARK   32  A    between atoms: _79  and  _82
REMARK   33  A    between atoms: _82  and  _83
REMARK   34  A    between atoms: _86  and  _88
REMARK   35  A    between atoms: _88  and  _89
REMARK   36  A    between atoms: _88  and  _91
REMARK   37  A    between atoms: _91  and  _92
REMARK   38  A    between atoms: _95  and  _97
REMARK   39  A    between atoms: _97  and  _98
REMARK   40  A    between atoms: _97  and  _100
REMARK   41  A    between atoms: _100  and  _101
REMARK   42  A    between atoms: _101  and  _102
REMARK   43  A    between atoms: _102  and  _103
REMARK   44  A    between atoms: _103  and  _104
REMARK   45  A    between atoms: _108  and  _110
REMARK   46  A    between atoms: _110  and  _111
REMARK   47  A    between atoms: _110  and  _113
REMARK   48  A    between atoms: _113  and  _114
REMARK   49  A    between atoms: _119  and  _120
REMARK   50  A    between atoms: _122  and  _124
REMARK   51  A    between atoms: _124  and  _125
REMARK   52  A    between atoms: _124  and  _127
REMARK   53  A    between atoms: _127  and  _128
REMARK   54  A    between atoms: _133  and  _135
REMARK   55  A    between atoms: _135  and  _136
REMARK   56  A    between atoms: _135  and  _138
REMARK   57  A    between atoms: _138  and  _139
REMARK   58  A    between atoms: _142  and  _144
REMARK   59  A    between atoms: _144  and  _145
REMARK   60  A    between atoms: _147  and  _149
REMARK   61  A    between atoms: _149  and  _150
REMARK   62  A    between atoms: _153  and  _155
REMARK   63  A    between atoms: _155  and  _156
REMARK   64  A    between atoms: _155  and  _158
REMARK   65  A    between atoms: _158  and  _159
REMARK   66  A    between atoms: _164  and  _165
REMARK   67  A    between atoms: _167  and  _169
REMARK   68  A    between atoms: _169  and  _170
REMARK   69  A    between atoms: _169  and  _172
REMARK   70  A    between atoms: _172  and  _173
REMARK   71  A    between atoms: _176  and  _178
REMARK   72  A    between atoms: _178  and  _179
REMARK   73  A    between atoms: _178  and  _181
REMARK   74  A    between atoms: _184  and  _186
REMARK   75  A    between atoms: _186  and  _187
REMARK   76  A    between atoms: _186  and  _189
REMARK   77  A    between atoms: _189  and  _190
REMARK   78  A    between atoms: _190  and  _191
REMARK   79  A    between atoms: _191  and  _192
REMARK   80  A    between atoms: _201  and  _203
REMARK   81  A    between atoms: _203  and  _204
REMARK   82  A    between atoms: _203  and  _206
REMARK   83  A    between atoms: _206  and  _207
REMARK   84  A    between atoms: _210  and  _212
REMARK   85  A    between atoms: _212  and  _213
REMARK   86  A    between atoms: _212  and  _215
REMARK   87  A    between atoms: _218  and  _220
REMARK   88  A    between atoms: _220  and  _221
REMARK   89  A    between atoms: _220  and  _223
REMARK   90  A    between atoms: _223  and  _224
REMARK   91  A    between atoms: _224  and  _225
REMARK   92  A    between atoms: _225  and  _226
REMARK   93  A    between atoms: _235  and  _237
REMARK   94  A    between atoms: _237  and  _238
REMARK   95  A    between atoms: _241  and  _243
REMARK   96  A    between atoms: _243  and  _244
REMARK   97  A    between atoms: _246  and  _248
REMARK   98  A    between atoms: _248  and  _249
REMARK   99  A    between atoms: _248  and  _251
REMARK  100  A    between atoms: _251  and  _252
REMARK  101  A    between atoms: _257  and  _259
REMARK  102  A    between atoms: _259  and  _260
REMARK  103  A    between atoms: _259  and  _262
REMARK  104  A    between atoms: _262  and  _263
REMARK  105  A    between atoms: _263  and  _264
REMARK  106  A    between atoms: _264  and  _265
REMARK  107  A    between atoms: _274  and  _276
REMARK  108  A    between atoms: _276  and  _277
REMARK  109  A    between atoms: _276  and  _279
REMARK  110  A    between atoms: _279  and  _280
REMARK  111  A    between atoms: _283  and  _285
REMARK  112  A    between atoms: _285  and  _286
REMARK  113  A    between atoms: _285  and  _288
REMARK  114  A    between atoms: _288  and  _289
REMARK  115  A    between atoms: _291  and  _293
REMARK  116  A    between atoms: _293  and  _294
REMARK  117  A    between atoms: _293  and  _296
REMARK  118  A    between atoms: _296  and  _297
REMARK  119  A    between atoms: _297  and  _408
REMARK  120  A    between atoms: _298  and  _300
REMARK  121  A    between atoms: _300  and  _301
REMARK  122  A    between atoms: _300  and  _303
REMARK  123  A    between atoms: _303  and  _304
REMARK  124  A    between atoms: _304  and  _305
REMARK  125  A    between atoms: _310  and  _312
REMARK  126  A    between atoms: _312  and  _313
REMARK  127  A    between atoms: _315  and  _317
REMARK  128  A    between atoms: _317  and  _318
REMARK  129  A    between atoms: _317  and  _320
REMARK  130  A    between atoms: _320  and  _321
REMARK  131  A    between atoms: _324  and  _326
REMARK  132  A    between atoms: _326  and  _327
REMARK  133  A    between atoms: _326  and  _329
REMARK  134  A    between atoms: _329  and  _330
REMARK  135  A    between atoms: _332  and  _334
REMARK  136  A    between atoms: _334  and  _335
REMARK  137  A    between atoms: _337  and  _339
REMARK  138  A    between atoms: _339  and  _340
REMARK  139  A    between atoms: _342  and  _344
REMARK  140  A    between atoms: _344  and  _345
REMARK  141  A    between atoms: _344  and  _347
REMARK  142  A    between atoms: _350  and  _352
REMARK  143  A    between atoms: _352  and  _353
REMARK  144  A    between atoms: _352  and  _355
REMARK  145  A    between atoms: _358  and  _360
REMARK  146  A    between atoms: _360  and  _361
REMARK  147  A    between atoms: _360  and  _363
REMARK  148  A    between atoms: _363  and  _364
REMARK  149  A    between atoms: _366  and  _368
REMARK  150  A    between atoms: _368  and  _369
REMARK  151  A    between atoms: _368  and  _371
REMARK  152  A    between atoms: _371  and  _372
REMARK  153  A    between atoms: _382  and  _384
REMARK  154  A    between atoms: _384  and  _385
REMARK  155  A    between atoms: _387  and  _389
REMARK  156  A    between atoms: _389  and  _390
REMARK  157  A    between atoms: _389  and  _392
REMARK  158  A    between atoms: _392  and  _393
REMARK  159  A    between atoms: _393  and  _394
REMARK  160  A    between atoms: _397  and  _399
REMARK  161  A    between atoms: _399  and  _400
REMARK  162  A    between atoms: _402  and  _404
REMARK  163  A    between atoms: _404  and  _405
REMARK  164  A    between atoms: _404  and  _407
REMARK  165  A    between atoms: _407  and  _408
REMARK  166  A    between atoms: _409  and  _411
REMARK  167  A    between atoms: _411  and  _412
REMARK  168  A    between atoms: _415  and  _417
REMARK  169  A    between atoms: _417  and  _418
REMARK  170  A    between atoms: _417  and  _420
REMARK  171  A    between atoms: _420  and  _421
REMARK  172  A    between atoms: _421  and  _422
REMARK  173  A    between atoms: _427  and  _429
REMARK  174  A    between atoms: _429  and  _430
REMARK  175  A    between atoms: _429  and  _432
REMARK  176  A    between atoms: _432  and  _433
REMARK  177  A    between atoms: _438  and  _440
REMARK  178  A    between atoms: _440  and  _441
REMARK  179  A    between atoms: _440  and  _443
REMARK  180  A    between atoms: _443  and  _444
REMARK  181  A    between atoms: _444  and  _445
REMARK  182  A    between atoms: _445  and  _446
REMARK  183  A    between atoms: _456  and  _457
REMARK  184  A    between atoms: _462  and  _464
REMARK  185  A    between atoms: _464  and  _465
REMARK  186  A    between atoms: _467  and  _469
REMARK  187  A    between atoms: _469  and  _470
REMARK  188  A    between atoms: _469  and  _472
REMARK  189  A    between atoms: _472  and  _473
REMARK  190  A    between atoms: _476  and  _478
REMARK  191  A    between atoms: _478  and  _479
REMARK  192  A    between atoms: _478  and  _481
REMARK  193  A    between atoms: _481  and  _482
REMARK  194  A    between atoms: _487  and  _488
REMARK  195  A    between atoms: _490  and  _492
REMARK  196  A    between atoms: _492  and  _493
REMARK  197  A    between atoms: _496  and  _497
REMARK  198  A    between atoms: _502  and  _504
REMARK  199  A    between atoms: _504  and  _505
REMARK  200  A    between atoms: _504  and  _507
REMARK  201  A    between atoms: _507  and  _508
REMARK  202  A    between atoms: _511  and  _513
REMARK  203  A    between atoms: _513  and  _514
REMARK  204  A    between atoms: _513  and  _516
REMARK  205  A    between atoms: _519  and  _521
REMARK  206  A    between atoms: _521  and  _522
REMARK  207  A    between atoms: _521  and  _524
REMARK  208  A    between atoms: _524  and  _525
REMARK  209  A    between atoms: _533  and  _534
REMARK  210  A    between atoms: _533  and  _536
REMARK  211  A    between atoms: _536  and  _537
REMARK  212  A    between atoms: _542  and  _543
REMARK  213  A    between atoms: _545  and  _547
REMARK  214  A    between atoms: _547  and  _548
REMARK  215  A    between atoms: _547  and  _550
REMARK  216  A    between atoms: _550  and  _551
REMARK  217  A    between atoms: _554  and  _556
REMARK  218  A    between atoms: _556  and  _557
REMARK  219  A    between atoms: _556  and  _559
REMARK  220  A    between atoms: _559  and  _560
REMARK  221  A    between atoms: _560  and  _561
REMARK  222  A    between atoms: _566  and  _568
REMARK  223  A    between atoms: _568  and  _569
REMARK  224  A    between atoms: _568  and  _571
REMARK  225  A    between atoms: _571  and  _572
REMARK                            x       y       z     vdW  Elec       q    Type
REMARK                         _______ _______ _______ _____ _____    ______ ____
ROOT
ATOM      1  CB  HIS A   1      -8.340  59.494   4.143  0.00  0.00    +0.072 C 
ENDROOT
BRANCH   1   2
ATOM      2  CG  HIS A   1      -7.476  60.173   3.124  0.00  0.00    +0.082 A 
ATOM      3  CD2 HIS A   1      -6.130  60.131   2.971  0.00  0.00    +0.115 A 
ATOM      4  NE2 HIS A   1      -5.834  60.921   1.896  0.00  0.00    -0.221 NA
ATOM      5  CE1 HIS A   1      -6.981  61.416   1.446  0.00  0.00    +0.199 A 
ATOM      6  ND1 HIS A   1      -8.009  60.967   2.145  0.00  0.00    -0.227 NA
ENDBRANCH   1   2
BRANCH   1   7
ATOM      7  CA  HIS A   1      -8.277  60.108   5.555  0.00  0.00    +0.139 C 
BRANCH   7   8
ATOM      8  N   HIS A   1      -9.171  61.263   5.709  0.00  0.00    -0.239 NA
ATOM      9  H   HIS A   1      -9.539  61.731   4.856  0.00  0.00    +0.142 HD
ENDBRANCH   7   8
BRANCH   7  10
ATOM     10  C   HIS A   1      -6.857  60.406   5.997  0.00  0.00    +0.224 C 
ATOM     11  O   HIS A   1      -6.096  59.493   6.251  0.00  0.00    -0.287 OA
ENDBRANCH   7  10
ENDBRANCH   1   7
TORSDOF 4
REMARK  Name = ../refined-set-2016/4a6l/4a6l_pocket.pdb
REMARK  225 active torsions:
REMARK  status: ('A' for Active; 'I' for Inactive)
REMARK    1  A    between atoms: _1  and  _5
REMARK    2  A    between atoms: _5  and  _6
REMARK    3  A    between atoms: _5  and  _8
REMARK    4  A    between atoms: _8  and  _9
REMARK    5  A    between atoms: _12  and  _14
REMARK    6  A    between atoms: _14  and  _15
REMARK    7  A    between atoms: _14  and  _17
REMARK    8  A    between atoms: _20  and  _22
REMARK    9  A    between atoms: _22  and  _23
REMARK   10  A    between atoms: _22  and  _25
REMARK   11  A    between atoms: _25  and  _26
REMARK   12  A    between atoms: _31  and  _33
REMARK   13  A    between atoms: _33  and  _34
REMARK   14  A    between atoms: _37  and  _39
REMARK   15  A    between atoms: _39  and  _40
REMARK   16  A    between atoms: _39  and  _42
REMARK   17  A    between atoms: _42  and  _43
REMARK   18  A    between atoms: _43  and  _44
REMARK   19  A    between atoms: _49  and  _51
REMARK   20  A    between atoms: _51  and  _52
REMARK   21  A    between atoms: _51  and  _54
REMARK   22  A    between atoms: _57  and  _59
REMARK   23  A    between atoms: _59  and  _60
REMARK   24  A    between atoms: _59  and  _62
REMARK   25  A    between atoms: _62  and  _63
REMARK   26  A    between atoms: _66  and  _68
REMARK   27  A    between atoms: _68  and  _69
REMARK   28  A    between atoms: _68  and  _71
REMARK   29  A    between atoms: _71  and  _72
REMARK   30  A    between atoms: _77  and  _79
REMARK   31  A    between atoms: _79  and  _80
REMARK   32  A    between atoms: _79  and  _82
REMARK   33  A    between atoms: _82  and  _83
REMARK   34  A    between atoms: _86  and  _88
REMARK   35  A    between atoms: _88  and  _89
REMARK   36  A    between atoms: _88  and  _91
REMARK   37  A    between atoms: _91  and  _92
REMARK   38  A    between atoms: _95  and  _97
REMARK   39  A    between atoms: _97  and  _98
REMARK   40  A    between atoms: _97  and  _100
REMARK   41  A    between atoms: _100  and  _101
REMARK   42  A    between atoms: _101  and  _102
REMARK   43  A    between atoms: _102  and  _103
REMARK   44  A    between atoms: _103  and  _104
REMARK   45  A    between atoms: _108  and  _110
REMARK   46  A    between atoms: _110  and  _111
REMARK   47  A    between atoms: _110  and  _113
REMARK   48  A    between atoms: _113  and  _114
REMARK   49  A    between atoms: _119  and  _120
REMARK   50  A    between atoms: _122  and  _124
REMARK   51  A    between atoms: _124  and  _125
REMARK   52  A    between atoms: _124  and  _127
REMARK   53  A    between atoms: _127  and  _128
REMARK   54  A    between atoms: _133  and  _135
REMARK   55  A    between atoms: _135  and  _136
REMARK   56  A    between atoms: _135  and  _138
REMARK   57  A    between atoms: _138  and  _139
REMARK   58  A    between atoms: _142  and  _144
REMARK   59  A    between atoms: _144  and  _145
REMARK   60  A    between atoms: _147  and  _149
REMARK   61  A    between atoms: _149  and  _150
REMARK   62  A    between atoms: _153  and  _155
REMARK   63  A    between atoms: _155  and  _156
REMARK   64  A    between atoms: _155  and  _158
REMARK   65  A    between atoms: _158  and  _159
REMARK   66  A    between atoms: _164  and  _165
REMARK   67  A    between atoms: _167  and  _169
REMARK   68  A    between atoms: _169  and  _170
REMARK   69  A    between atoms: _169  and  _172
REMARK   70  A    between atoms: _172  and  _173
REMARK   71  A    between atoms: _176  and  _178
REMARK   72  A    between atoms: _178  and  _179
REMARK   73  A    between atoms: _178  and  _181
REMARK   74  A    between atoms: _184  and  _186
REMARK   75  A    between atoms: _186  and  _187
REMARK   76  A    between atoms: _186  and  _189
REMARK   77  A    between atoms: _189  and  _190
REMARK   78  A    between atoms: _190  and  _191
REMARK   79  A    between atoms: _191  and  _192
REMARK   80  A    between atoms: _201  and  _203
REMARK   81  A    between atoms: _203  and  _204
REMARK   82  A    between atoms: _203  and  _206
REMARK   83  A    between atoms: _206  and  _207
REMARK   84  A    between atoms: _210  and  _212
REMARK   85  A    between atoms: _212  and  _213
REMARK   86  A    between atoms: _212  and  _215
REMARK   87  A    between atoms: _218  and  _220
REMARK   88  A    between atoms: _220  and  _221
REMARK   89  A    between atoms: _220  and  _223
REMARK   90  A    between atoms: _223  and  _224
REMARK   91  A    between atoms: _224  and  _225
REMARK   92  A    between atoms: _225  and  _226
REMARK   93  A    between atoms: _235  and  _237
REMARK   94  A    between atoms: _237  and  _238
REMARK   95  A    between atoms: _241  and  _243
REMARK   96  A    between atoms: _243  and  _244
REMARK   97  A    between atoms: _246  and  _248
REMARK   98  A    between atoms: _248  and  _249
REMARK   99  A    between atoms: _248  and  _251
REMARK  100  A    between atoms: _251  and  _252
REMARK  101  A    between atoms: _257  and  _259
REMARK  102  A    between atoms: _259  and  _260
REMARK  103  A    between atoms: _259  and  _262
REMARK  104  A    between atoms: _262  and  _263
REMARK  105  A    between atoms: _263  and  _264
REMARK  106  A    between atoms: _264  and  _265
REMARK  107  A    between atoms: _274  and  _276
REMARK  108  A    between atoms: _276  and  _277
REMARK  109  A    between atoms: _276  and  _279
REMARK  110  A    between atoms: _279  and  _280
REMARK  111  A    between atoms: _283  and  _285
REMARK  112  A    between atoms: _285  and  _286
REMARK  113  A    between atoms: _285  and  _288
REMARK  114  A    between atoms: _288  and  _289
REMARK  115  A    between atoms: _291  and  _293
REMARK  116  A    between atoms: _293  and  _294
REMARK  117  A    between atoms: _293  and  _296
REMARK  118  A    between atoms: _296  and  _297
REMARK  119  A    between atoms: _297  and  _408
REMARK  120  A    between atoms: _298  and  _300
REMARK  121  A    between atoms: _300  and  _301
REMARK  122  A    between atoms: _300  and  _303
REMARK  123  A    between atoms: _303  and  _304
REMARK  124  A    between atoms: _304  and  _305
REMARK  125  A    between atoms: _310  and  _312
REMARK  126  A    between atoms: _312  and  _313
REMARK  127  A    between atoms: _315  and  _317
REMARK  128  A    between atoms: _317  and  _318
REMARK  129  A    between atoms: _317  and  _320
REMARK  130  A    between atoms: _320  and  _321
REMARK  131  A    between atoms: _324  and  _326
REMARK  132  A    between atoms: _326  and  _327
REMARK  133  A    between atoms: _326  and  _329
REMARK  134  A    between atoms: _329  and  _330
REMARK  135  A    between atoms: _332  and  _334
REMARK  136  A    between atoms: _334  and  _335
REMARK  137  A    between atoms: _337  and  _339
REMARK  138  A    between atoms: _339  and  _340
REMARK  139  A    between atoms: _342  and  _344
REMARK  140  A    between atoms: _344  and  _345
REMARK  141  A    between atoms: _344  and  _347
REMARK  142  A    between atoms: _350  and  _352
REMARK  143  A    between atoms: _352  and  _353
REMARK  144  A    between atoms: _352  and  _355
REMARK  145  A    between atoms: _358  and  _360
REMARK  146  A    between atoms: _360  and  _361
REMARK  147  A    between atoms: _360  and  _363
REMARK  148  A    between atoms: _363  and  _364
REMARK  149  A    between atoms: _366  and  _368
REMARK  150  A    between atoms: _368  and  _369
REMARK  151  A    between atoms: _368  and  _371
REMARK  152  A    between atoms: _371  and  _372
REMARK  153  A    between atoms: _382  and  _384
REMARK  154  A    between atoms: _384  and  _385
REMARK  155  A    between atoms: _387  and  _389
REMARK  156  A    between atoms: _389  and  _390
REMARK  157  A    between atoms: _389  and  _392
REMARK  158  A    between atoms: _392  and  _393
REMARK  159  A    between atoms: _393  and  _394
REMARK  160  A    between atoms: _397  and  _399
REMARK  161  A    between atoms: _399  and  _400
REMARK  162  A    between atoms: _402  and  _404
REMARK  163  A    between atoms: _404  and  _405
REMARK  164  A    between atoms: _404  and  _407
REMARK  165  A    between atoms: _407  and  _408
REMARK  166  A    between atoms: _409  and  _411
REMARK  167  A    between atoms: _411  and  _412
REMARK  168  A    between atoms: _415  and  _417
REMARK  169  A    between atoms: _417  and  _418
REMARK  170  A    between atoms: _417  and  _420
REMARK  171  A    between atoms: _420  and  _421
REMARK  172  A    between atoms: _421  and  _422
REMARK  173  A    between atoms: _427  and  _429
REMARK  174  A    between atoms: _429  and  _430
REMARK  175  A    between atoms: _429  and  _432
REMARK  176  A    between atoms: _432  and  _433
REMARK  177  A    between atoms: _438  and  _440
REMARK  178  A    between atoms: _440  and  _441
REMARK  179  A    between atoms: _440  and  _443
REMARK  180  A    between atoms: _443  and  _444
REMARK  181  A    between atoms: _444  and  _445
REMARK  182  A    between atoms: _445  and  _446
REMARK  183  A    between atoms: _456  and  _457
REMARK  184  A    between atoms: _462  and  _464
REMARK  185  A    between atoms: _464  and  _465
REMARK  186  A    between atoms: _467  and  _469
REMARK  187  A    between atoms: _469  and  _470
REMARK  188  A    between atoms: _469  and  _472
REMARK  189  A    between atoms: _472  and  _473
REMARK  190  A    between atoms: _476  and  _478
REMARK  191  A    between atoms: _478  and  _479
REMARK  192  A    between atoms: _478  and  _481
REMARK  193  A    between atoms: _481  and  _482
REMARK  194  A    between atoms: _487  and  _488
REMARK  195  A    between atoms: _490  and  _492
REMARK  196  A    between atoms: _492  and  _493
REMARK  197  A    between atoms: _496  and  _497
REMARK  198  A    between atoms: _502  and  _504
REMARK  199  A    between atoms: _504  and  _505
REMARK  200  A    between atoms: _504  and  _507
REMARK  201  A    between atoms: _507  and  _508
REMARK  202  A    between atoms: _511  and  _513
REMARK  203  A    between atoms: _513  and  _514
REMARK  204  A    between atoms: _513  and  _516
REMARK  205  A    between atoms: _519  and  _521
REMARK  206  A    between atoms: _521  and  _522
REMARK  207  A    between atoms: _521  and  _524
REMARK  208  A    between atoms: _524  and  _525
REMARK  209  A    between atoms: _533  and  _534
REMARK  210  A    between atoms: _533  and  _536
REMARK  211  A    between atoms: _536  and  _537
REMARK  212  A    between atoms: _542  and  _543
REMARK  213  A    between atoms: _545  and  _547
REMARK  214  A    between atoms: _547  and  _548
REMARK  215  A    between atoms: _547  and  _550
REMARK  216  A    between atoms: _550  and  _551
REMARK  217  A    between atoms: _554  and  _556
REMARK  218  A    between atoms: _556  and  _557
REMARK  219  A    between atoms: _556  and  _559
REMARK  220  A    between atoms: _559  and  _560
REMARK  221  A    between atoms: _560  and  _561
REMARK  222  A    between atoms: _566  and  _568
REMARK  223  A    between atoms: _568  and  _569
REMARK  224  A    between atoms: _568  and  _571
REMARK  225  A    between atoms: _571  and  _572
REMARK                            x       y       z     vdW  Elec       q    Type
REMARK                         _______ _______ _______ _____ _____    ______ ____
ROOT
ATOM      1  CA  GLN A   2     -14.151  56.004  -1.846  0.00  0.00    +0.137 C 
ENDROOT
BRANCH   1   3
ATOM      2  C   ALA A   1     -13.223  57.791  -0.428  0.00  0.00    +0.238 C 
ATOM      3  N   GLN A   2     -13.298  56.484  -0.763  0.00  0.00    -0.298 N 
ATOM      4  H   GLN A   2     -12.728  55.796  -0.231  0.00  0.00    +0.150 HD
ATOM      5  O   ALA A   1     -13.892  58.659  -0.991  0.00  0.00    -0.274 OA
BRANCH   2   6
ATOM      6  CA  ALA A   1     -12.278  58.180   0.733  0.00  0.00    +0.145 C 
ATOM      7  CB  ALA A   1     -10.901  58.562   0.184  0.00  0.00    +0.028 C 
BRANCH   6   8
ATOM      8  N   ALA A   1     -12.162  57.094   1.729  0.00  0.00    -0.238 NA
ATOM      9  H   ALA A   1     -11.238  56.633   1.850  0.00  0.00    +0.142 HD
ENDBRANCH   6   8
ENDBRANCH   2   6
ENDBRANCH   1   3
BRANCH   1  10
ATOM     10  C   GLN A   2     -15.635  56.083  -1.480  0.00  0.00    +0.227 C 
ATOM     11  O   GLN A   2     -16.462  56.290  -2.374  0.00  0.00    -0.286 OA
ENDBRANCH   1  10
BRANCH   1  12
ATOM     12  CB  GLN A   2     -13.762  54.596  -2.320  0.00  0.00    +0.037 C 
BRANCH  12  13
ATOM     13  CG  GLN A   2     -12.386  54.524  -2.985  0.00  0.00    +0.087 C 
BRANCH  13  14
ATOM     14  CD  GLN A   2     -11.233  54.597  -2.023  0.00  0.00    +0.219 C 
ATOM     15  OE1 GLN A   2     -11.317  54.155  -0.868  0.00  0.00    -0.275 OA
ATOM     16  NE2 GLN A   2     -10.159  55.232  -2.451  0.00  0.00    -0.329 N 
ATOM     17 HE21 GLN A   2      -9.350  55.374  -1.813  0.00  0.00    +0.145 HD
ATOM     18 HE22 GLN A   2     -10.121  55.590  -3.427  0.00  0.00    +0.145 HD
ENDBRANCH  13  14
ENDBRANCH  12  13
ENDBRANCH   1  12
TORSDOF 7
REMARK  Name = ../refined-set-2016/4a6l/4a6l_pocket.pdb
REMARK  225 active torsions:
REMARK  status: ('A' for Active; 'I' for Inactive)
REMARK    1  A    between atoms: _1  and  _5
REMARK    2  A    between atoms: _5  and  _6
REMARK    3  A    between atoms: _5  and  _8
REMARK    4  A    between atoms: _8  and  _9
REMARK    5  A    between atoms: _12  and  _14
REMARK    6  A    between atoms: _14  and  _15
REMARK    7  A    between atoms: _14  and  _17
REMARK    8  A    between atoms: _20  and  _22
REMARK    9  A    between atoms: _22  and  _23
REMARK   10  A    between atoms: _22  and  _25
REMARK   11  A    between atoms: _25  and  _26
REMARK   12  A    between atoms: _31  and  _33
REMARK   13  A    between atoms: _33  and  _34
REMARK   14  A    between atoms: _37  and  _39
REMARK   15  A    between atoms: _39  and  _40
REMARK   16  A    between atoms: _39  and  _42
REMARK   17  A    between atoms: _42  and  _43
REMARK   18  A    between atoms: _43  and  _44
REMARK   19  A    between atoms: _49  and  _51
REMARK   20  A    between atoms: _51  and  _52
REMARK   21  A    between atoms: _51  and  _54
REMARK   22  A    between atoms: _57  and  _59
REMARK   23  A    between atoms: _59  and  _60
REMARK   24  A    between atoms: _59  and  _62
REMARK   25  A    between atoms: _62  and  _63
REMARK   26  A    between atoms: _66  and  _68
REMARK   27  A    between atoms: _68  and  _69
REMARK   28  A    between atoms: _68  and  _71
REMARK   29  A    between atoms: _71  and  _72
REMARK   30  A    between atoms: _77  and  _79
REMARK   31  A    between atoms: _79  and  _80
REMARK   32  A    between atoms: _79  and  _82
REMARK   33  A    between atoms: _82  and  _83
REMARK   34  A    between atoms: _86  and  _88
REMARK   35  A    between atoms: _88  and  _89
REMARK   36  A    between atoms: _88  and  _91
REMARK   37  A    between atoms: _91  and  _92
REMARK   38  A    between atoms: _95  and  _97
REMARK   39  A    between atoms: _97  and  _98
REMARK   40  A    between atoms: _97  and  _100
REMARK   41  A    between atoms: _100  and  _101
REMARK   42  A    between atoms: _101  and  _102
REMARK   43  A    between atoms: _102  and  _103
REMARK   44  A    between atoms: _103  and  _104
REMARK   45  A    between atoms: _108  and  _110
REMARK   46  A    between atoms: _110  and  _111
REMARK   47  A    between atoms: _110  and  _113
REMARK   48  A    between atoms: _113  and  _114
REMARK   49  A    between atoms: _119  and  _120
REMARK   50  A    between atoms: _122  and  _124
REMARK   51  A    between atoms: _124  and  _125
REMARK   52  A    between atoms: _124  and  _127
REMARK   53  A    between atoms: _127  and  _128
REMARK   54  A    between atoms: _133  and  _135
REMARK   55  A    between atoms: _135  and  _136
REMARK   56  A    between atoms: _135  and  _138
REMARK   57  A    between atoms: _138  and  _139
REMARK   58  A    between atoms: _142  and  _144
REMARK   59  A    between atoms: _144  and  _145
REMARK   60  A    between atoms: _147  and  _149
REMARK   61  A    between atoms: _149  and  _150
REMARK   62  A    between atoms: _153  and  _155
REMARK   63  A    between atoms: _155  and  _156
REMARK   64  A    between atoms: _155  and  _158
REMARK   65  A    between atoms: _158  and  _159
REMARK   66  A    between atoms: _164  and  _165
REMARK   67  A    between atoms: _167  and  _169
REMARK   68  A    between atoms: _169  and  _170
REMARK   69  A    between atoms: _169  and  _172
REMARK   70  A    between atoms: _172  and  _173
REMARK   71  A    between atoms: _176  and  _178
REMARK   72  A    between atoms: _178  and  _179
REMARK   73  A    between atoms: _178  and  _181
REMARK   74  A    between atoms: _184  and  _186
REMARK   75  A    between atoms: _186  and  _187
REMARK   76  A    between atoms: _186  and  _189
REMARK   77  A    between atoms: _189  and  _190
REMARK   78  A    between atoms: _190  and  _191
REMARK   79  A    between atoms: _191  and  _192
REMARK   80  A    between atoms: _201  and  _203
REMARK   81  A    between atoms: _203  and  _204
REMARK   82  A    between atoms: _203  and  _206
REMARK   83  A    between atoms: _206  and  _207
REMARK   84  A    between atoms: _210  and  _212
REMARK   85  A    between atoms: _212  and  _213
REMARK   86  A    between atoms: _212  and  _215
REMARK   87  A    between atoms: _218  and  _220
REMARK   88  A    between atoms: _220  and  _221
REMARK   89  A    between atoms: _220  and  _223
REMARK   90  A    between atoms: _223  and  _224
REMARK   91  A    between atoms: _224  and  _225
REMARK   92  A    between atoms: _225  and  _226
REMARK   93  A    between atoms: _235  and  _237
REMARK   94  A    between atoms: _237  and  _238
REMARK   95  A    between atoms: _241  and  _243
REMARK   96  A    between atoms: _243  and  _244
REMARK   97  A    between atoms: _246  and  _248
REMARK   98  A    between atoms: _248  and  _249
REMARK   99  A    between atoms: _248  and  _251
REMARK  100  A    between atoms: _251  and  _252
REMARK  101  A    between atoms: _257  and  _259
REMARK  102  A    between atoms: _259  and  _260
REMARK  103  A    between atoms: _259  and  _262
REMARK  104  A    between atoms: _262  and  _263
REMARK  105  A    between atoms: _263  and  _264
REMARK  106  A    between atoms: _264  and  _265
REMARK  107  A    between atoms: _274  and  _276
REMARK  108  A    between atoms: _276  and  _277
REMARK  109  A    between atoms: _276  and  _279
REMARK  110  A    between atoms: _279  and  _280
REMARK  111  A    between atoms: _283  and  _285
REMARK  112  A    between atoms: _285  and  _286
REMARK  113  A    between atoms: _285  and  _288
REMARK  114  A    between atoms: _288  and  _289
REMARK  115  A    between atoms: _291  and  _293
REMARK  116  A    between atoms: _293  and  _294
REMARK  117  A    between atoms: _293  and  _296
REMARK  118  A    between atoms: _296  and  _297
REMARK  119  A    between atoms: _297  and  _408
REMARK  120  A    between atoms: _298  and  _300
REMARK  121  A    between atoms: _300  and  _301
REMARK  122  A    between atoms: _300  and  _303
REMARK  123  A    between atoms: _303  and  _304
REMARK  124  A    between atoms: _304  and  _305
REMARK  125  A    between atoms: _310  and  _312
REMARK  126  A    between atoms: _312  and  _313
REMARK  127  A    between atoms: _315  and  _317
REMARK  128  A    between atoms: _317  and  _318
REMARK  129  A    between atoms: _317  and  _320
REMARK  130  A    between atoms: _320  and  _321
REMARK  131  A    between atoms: _324  and  _326
REMARK  132  A    between atoms: _326  and  _327
REMARK  133  A    between atoms: _326  and  _329
REMARK  134  A    between atoms: _329  and  _330
REMARK  135  A    between atoms: _332  and  _334
REMARK  136  A    between atoms: _334  and  _335
REMARK  137  A    between atoms: _337  and  _339
REMARK  138  A    between atoms: _339  and  _340
REMARK  139  A    between atoms: _342  and  _344
REMARK  140  A    between atoms: _344  and  _345
REMARK  141  A    between atoms: _344  and  _347
REMARK  142  A    between atoms: _350  and  _352
REMARK  143  A    between atoms: _352  and  _353
REMARK  144  A    between atoms: _352  and  _355
REMARK  145  A    between atoms: _358  and  _360
REMARK  146  A    between atoms: _360  and  _361
REMARK  147  A    between atoms: _360  and  _363
REMARK  148  A    between atoms: _363  and  _364
REMARK  149  A    between atoms: _366  and  _368
REMARK  150  A    between atoms: _368  and  _369
REMARK  151  A    between atoms: _368  and  _371
REMARK  152  A    between atoms: _371  and  _372
REMARK  153  A    between atoms: _382  and  _384
REMARK  154  A    between atoms: _384  and  _385
REMARK  155  A    between atoms: _387  and  _389
REMARK  156  A    between atoms: _389  and  _390
REMARK  157  A    between atoms: _389  and  _392
REMARK  158  A    between atoms: _392  and  _393
REMARK  159  A    between atoms: _393  and  _394
REMARK  160  A    between atoms: _397  and  _399
REMARK  161  A    between atoms: _399  and  _400
REMARK  162  A    between atoms: _402  and  _404
REMARK  163  A    between atoms: _404  and  _405
REMARK  164  A    between atoms: _404  and  _407
REMARK  165  A    between atoms: _407  and  _408
REMARK  166  A    between atoms: _409  and  _411
REMARK  167  A    between atoms: _411  and  _412
REMARK  168  A    between atoms: _415  and  _417
REMARK  169  A    between atoms: _417  and  _418
REMARK  170  A    between atoms: _417  and  _420
REMARK  171  A    between atoms: _420  and  _421
REMARK  172  A    between atoms: _421  and  _422
REMARK  173  A    between atoms: _427  and  _429
REMARK  174  A    between atoms: _429  and  _430
REMARK  175  A    between atoms: _429  and  _432
REMARK  176  A    between atoms: _432  and  _433
REMARK  177  A    between atoms: _438  and  _440
REMARK  178  A    between atoms: _440  and  _441
REMARK  179  A    between atoms: _440  and  _443
REMARK  180  A    between atoms: _443  and  _444
REMARK  181  A    between atoms: _444  and  _445
REMARK  182  A    between atoms: _445  and  _446
REMARK  183  A    between atoms: _456  and  _457
REMARK  184  A    between atoms: _462  and  _464
REMARK  185  A    between atoms: _464  and  _465
REMARK  186  A    between atoms: _467  and  _469
REMARK  187  A    between atoms: _469  and  _470
REMARK  188  A    between atoms: _469  and  _472
REMARK  189  A    between atoms: _472  and  _473
REMARK  190  A    between atoms: _476  and  _478
REMARK  191  A    between atoms: _478  and  _479
REMARK  192  A    between atoms: _478  and  _481
REMARK  193  A    between atoms: _481  and  _482
REMARK  194  A    between atoms: _487  and  _488
REMARK  195  A    between atoms: _490  and  _492
REMARK  196  A    between atoms: _492  and  _493
REMARK  197  A    between atoms: _496  and  _497
REMARK  198  A    between atoms: _502  and  _504
REMARK  199  A    between atoms: _504  and  _505
REMARK  200  A    between atoms: _504  and  _507
REMARK  201  A    between atoms: _507  and  _508
REMARK  202  A    between atoms: _511  and  _513
REMARK  203  A    between atoms: _513  and  _514
REMARK  204  A    between atoms: _513  and  _516
REMARK  205  A    between atoms: _519  and  _521
REMARK  206  A    between atoms: _521  and  _522
REMARK  207  A    between atoms: _521  and  _524
REMARK  208  A    between atoms: _524  and  _525
REMARK  209  A    between atoms: _533  and  _534
REMARK  210  A    between atoms: _533  and  _536
REMARK  211  A    between atoms: _536  and  _537
REMARK  212  A    between atoms: _542  and  _543
REMARK  213  A    between atoms: _545  and  _547
REMARK  214  A    between atoms: _547  and  _548
REMARK  215  A    between atoms: _547  and  _550
REMARK  216  A    between atoms: _550  and  _551
REMARK  217  A    between atoms: _554  and  _556
REMARK  218  A    between atoms: _556  and  _557
REMARK  219  A    between atoms: _556  and  _559
REMARK  220  A    between atoms: _559  and  _560
REMARK  221  A    between atoms: _560  and  _561
REMARK  222  A    between atoms: _566  and  _568
REMARK  223  A    between atoms: _568  and  _569
REMARK  224  A    between atoms: _568  and  _571
REMARK  225  A    between atoms: _571  and  _572
REMARK                            x       y       z     vdW  Elec       q    Type
REMARK                         _______ _______ _______ _____ _____    ______ ____
ROOT
ATOM      1  CA  VAL A   1      -4.183  72.385  -7.017  0.00  0.00    +0.133 C 
ENDROOT
BRANCH   1   2
ATOM      2  CB  VAL A   1      -4.662  70.911  -7.128  0.00  0.00    +0.023 C 
ATOM      3  CG2 VAL A   1      -4.591  70.205  -5.780  0.00  0.00    +0.002 C 
ATOM      4  CG1 VAL A   1      -3.920  70.136  -8.207  0.00  0.00    +0.002 C 
ENDBRANCH   1   2
BRANCH   1   5
ATOM      5  N   VAL A   1      -4.477  73.261  -8.147  0.00  0.00    -0.239 NA
ATOM      6  H   VAL A   1      -4.043  73.043  -9.067  0.00  0.00    +0.142 HD
ENDBRANCH   1   5
BRANCH   1   7
ATOM      7  C   VAL A   1      -2.719  72.590  -6.534  0.00  0.00    +0.224 C 
ATOM      8  O   VAL A   1      -1.800  72.755  -7.347  0.00  0.00    -0.287 OA
ENDBRANCH   1   7
TORSDOF 3
REMARK  Name = ../refined-set-2016/4a6l/4a6l_pocket.pdb
REMARK  225 active torsions:
REMARK  status: ('A' for Active; 'I' for Inactive)
REMARK    1  A    between atoms: _1  and  _5
REMARK    2  A    between atoms: _5  and  _6
REMARK    3  A    between atoms: _5  and  _8
REMARK    4  A    between atoms: _8  and  _9
REMARK    5  A    between atoms: _12  and  _14
REMARK    6  A    between atoms: _14  and  _15
REMARK    7  A    between atoms: _14  and  _17
REMARK    8  A    between atoms: _20  and  _22
REMARK    9  A    between atoms: _22  and  _23
REMARK   10  A    between atoms: _22  and  _25
REMARK   11  A    between atoms: _25  and  _26
REMARK   12  A    between atoms: _31  and  _33
REMARK   13  A    between atoms: _33  and  _34
REMARK   14  A    between atoms: _37  and  _39
REMARK   15  A    between atoms: _39  and  _40
REMARK   16  A    between atoms: _39  and  _42
REMARK   17  A    between atoms: _42  and  _43
REMARK   18  A    between atoms: _43  and  _44
REMARK   19  A    between atoms: _49  and  _51
REMARK   20  A    between atoms: _51  and  _52
REMARK   21  A    between atoms: _51  and  _54
REMARK   22  A    between atoms: _57  and  _59
REMARK   23  A    between atoms: _59  and  _60
REMARK   24  A    between atoms: _59  and  _62
REMARK   25  A    between atoms: _62  and  _63
REMARK   26  A    between atoms: _66  and  _68
REMARK   27  A    between atoms: _68  and  _69
REMARK   28  A    between atoms: _68  and  _71
REMARK   29  A    between atoms: _71  and  _72
REMARK   30  A    between atoms: _77  and  _79
REMARK   31  A    between atoms: _79  and  _80
REMARK   32  A    between atoms: _79  and  _82
REMARK   33  A    between atoms: _82  and  _83
REMARK   34  A    between atoms: _86  and  _88
REMARK   35  A    between atoms: _88  and  _89
REMARK   36  A    between atoms: _88  and  _91
REMARK   37  A    between atoms: _91  and  _92
REMARK   38  A    between atoms: _95  and  _97
REMARK   39  A    between atoms: _97  and  _98
REMARK   40  A    between atoms: _97  and  _100
REMARK   41  A    between atoms: _100  and  _101
REMARK   42  A    between atoms: _101  and  _102
REMARK   43  A    between atoms: _102  and  _103
REMARK   44  A    between atoms: _103  and  _104
REMARK   45  A    between atoms: _108  and  _110
REMARK   46  A    between atoms: _110  and  _111
REMARK   47  A    between atoms: _110  and  _113
REMARK   48  A    between atoms: _113  and  _114
REMARK   49  A    between atoms: _119  and  _120
REMARK   50  A    between atoms: _122  and  _124
REMARK   51  A    between atoms: _124  and  _125
REMARK   52  A    between atoms: _124  and  _127
REMARK   53  A    between atoms: _127  and  _128
REMARK   54  A    between atoms: _133  and  _135
REMARK   55  A    between atoms: _135  and  _136
REMARK   56  A    between atoms: _135  and  _138
REMARK   57  A    between atoms: _138  and  _139
REMARK   58  A    between atoms: _142  and  _144
REMARK   59  A    between atoms: _144  and  _145
REMARK   60  A    between atoms: _147  and  _149
REMARK   61  A    between atoms: _149  and  _150
REMARK   62  A    between atoms: _153  and  _155
REMARK   63  A    between atoms: _155  and  _156
REMARK   64  A    between atoms: _155  and  _158
REMARK   65  A    between atoms: _158  and  _159
REMARK   66  A    between atoms: _164  and  _165
REMARK   67  A    between atoms: _167  and  _169
REMARK   68  A    between atoms: _169  and  _170
REMARK   69  A    between atoms: _169  and  _172
REMARK   70  A    between atoms: _172  and  _173
REMARK   71  A    between atoms: _176  and  _178
REMARK   72  A    between atoms: _178  and  _179
REMARK   73  A    between atoms: _178  and  _181
REMARK   74  A    between atoms: _184  and  _186
REMARK   75  A    between atoms: _186  and  _187
REMARK   76  A    between atoms: _186  and  _189
REMARK   77  A    between atoms: _189  and  _190
REMARK   78  A    between atoms: _190  and  _191
REMARK   79  A    between atoms: _191  and  _192
REMARK   80  A    between atoms: _201  and  _203
REMARK   81  A    between atoms: _203  and  _204
REMARK   82  A    between atoms: _203  and  _206
REMARK   83  A    between atoms: _206  and  _207
REMARK   84  A    between atoms: _210  and  _212
REMARK   85  A    between atoms: _212  and  _213
REMARK   86  A    between atoms: _212  and  _215
REMARK   87  A    between atoms: _218  and  _220
REMARK   88  A    between atoms: _220  and  _221
REMARK   89  A    between atoms: _220  and  _223
REMARK   90  A    between atoms: _223  and  _224
REMARK   91  A    between atoms: _224  and  _225
REMARK   92  A    between atoms: _225  and  _226
REMARK   93  A    between atoms: _235  and  _237
REMARK   94  A    between atoms: _237  and  _238
REMARK   95  A    between atoms: _241  and  _243
REMARK   96  A    between atoms: _243  and  _244
REMARK   97  A    between atoms: _246  and  _248
REMARK   98  A    between atoms: _248  and  _249
REMARK   99  A    between atoms: _248  and  _251
REMARK  100  A    between atoms: _251  and  _252
REMARK  101  A    between atoms: _257  and  _259
REMARK  102  A    between atoms: _259  and  _260
REMARK  103  A    between atoms: _259  and  _262
REMARK  104  A    between atoms: _262  and  _263
REMARK  105  A    between atoms: _263  and  _264
REMARK  106  A    between atoms: _264  and  _265
REMARK  107  A    between atoms: _274  and  _276
REMARK  108  A    between atoms: _276  and  _277
REMARK  109  A    between atoms: _276  and  _279
REMARK  110  A    between atoms: _279  and  _280
REMARK  111  A    between atoms: _283  and  _285
REMARK  112  A    between atoms: _285  and  _286
REMARK  113  A    between atoms: _285  and  _288
REMARK  114  A    between atoms: _288  and  _289
REMARK  115  A    between atoms: _291  and  _293
REMARK  116  A    between atoms: _293  and  _294
REMARK  117  A    between atoms: _293  and  _296
REMARK  118  A    between atoms: _296  and  _297
REMARK  119  A    between atoms: _297  and  _408
REMARK  120  A    between atoms: _298  and  _300
REMARK  121  A    between atoms: _300  and  _301
REMARK  122  A    between atoms: _300  and  _303
REMARK  123  A    between atoms: _303  and  _304
REMARK  124  A    between atoms: _304  and  _305
REMARK  125  A    between atoms: _310  and  _312
REMARK  126  A    between atoms: _312  and  _313
REMARK  127  A    between atoms: _315  and  _317
REMARK  128  A    between atoms: _317  and  _318
REMARK  129  A    between atoms: _317  and  _320
REMARK  130  A    between atoms: _320  and  _321
REMARK  131  A    between atoms: _324  and  _326
REMARK  132  A    between atoms: _326  and  _327
REMARK  133  A    between atoms: _326  and  _329
REMARK  134  A    between atoms: _329  and  _330
REMARK  135  A    between atoms: _332  and  _334
REMARK  136  A    between atoms: _334  and  _335
REMARK  137  A    between atoms: _337  and  _339
REMARK  138  A    between atoms: _339  and  _340
REMARK  139  A    between atoms: _342  and  _344
REMARK  140  A    between atoms: _344  and  _345
REMARK  141  A    between atoms: _344  and  _347
REMARK  142  A    between atoms: _350  and  _352
REMARK  143  A    between atoms: _352  and  _353
REMARK  144  A    between atoms: _352  and  _355
REMARK  145  A    between atoms: _358  and  _360
REMARK  146  A    between atoms: _360  and  _361
REMARK  147  A    between atoms: _360  and  _363
REMARK  148  A    between atoms: _363  and  _364
REMARK  149  A    between atoms: _366  and  _368
REMARK  150  A    between atoms: _368  and  _369
REMARK  151  A    between atoms: _368  and  _371
REMARK  152  A    between atoms: _371  and  _372
REMARK  153  A    between atoms: _382  and  _384
REMARK  154  A    between atoms: _384  and  _385
REMARK  155  A    between atoms: _387  and  _389
REMARK  156  A    between atoms: _389  and  _390
REMARK  157  A    between atoms: _389  and  _392
REMARK  158  A    between atoms: _392  and  _393
REMARK  159  A    between atoms: _393  and  _394
REMARK  160  A    between atoms: _397  and  _399
REMARK  161  A    between atoms: _399  and  _400
REMARK  162  A    between atoms: _402  and  _404
REMARK  163  A    between atoms: _404  and  _405
REMARK  164  A    between atoms: _404  and  _407
REMARK  165  A    between atoms: _407  and  _408
REMARK  166  A    between atoms: _409  and  _411
REMARK  167  A    between atoms: _411  and  _412
REMARK  168  A    between atoms: _415  and  _417
REMARK  169  A    between atoms: _417  and  _418
REMARK  170  A    between atoms: _417  and  _420
REMARK  171  A    between atoms: _420  and  _421
REMARK  172  A    between atoms: _421  and  _422
REMARK  173  A    between atoms: _427  and  _429
REMARK  174  A    between atoms: _429  and  _430
REMARK  175  A    between atoms: _429  and  _432
REMARK  176  A    between atoms: _432  and  _433
REMARK  177  A    between atoms: _438  and  _440
REMARK  178  A    between atoms: _440  and  _441
REMARK  179  A    between atoms: _440  and  _443
REMARK  180  A    between atoms: _443  and  _444
REMARK  181  A    between atoms: _444  and  _445
REMARK  182  A    between atoms: _445  and  _446
REMARK  183  A    between atoms: _456  and  _457
REMARK  184  A    between atoms: _462  and  _464
REMARK  185  A    between atoms: _464  and  _465
REMARK  186  A    between atoms: _467  and  _469
REMARK  187  A    between atoms: _469  and  _470
REMARK  188  A    between atoms: _469  and  _472
REMARK  189  A    between atoms: _472  and  _473
REMARK  190  A    between atoms: _476  and  _478
REMARK  191  A    between atoms: _478  and  _479
REMARK  192  A    between atoms: _478  and  _481
REMARK  193  A    between atoms: _481  and  _482
REMARK  194  A    between atoms: _487  and  _488
REMARK  195  A    between atoms: _490  and  _492
REMARK  196  A    between atoms: _492  and  _493
REMARK  197  A    between atoms: _496  and  _497
REMARK  198  A    between atoms: _502  and  _504
REMARK  199  A    between atoms: _504  and  _505
REMARK  200  A    between atoms: _504  and  _507
REMARK  201  A    between atoms: _507  and  _508
REMARK  202  A    between atoms: _511  and  _513
REMARK  203  A    between atoms: _513  and  _514
REMARK  204  A    between atoms: _513  and  _516
REMARK  205  A    between atoms: _519  and  _521
REMARK  206  A    between atoms: _521  and  _522
REMARK  207  A    between atoms: _521  and  _524
REMARK  208  A    between atoms: _524  and  _525
REMARK  209  A    between atoms: _533  and  _534
REMARK  210  A    between atoms: _533  and  _536
REMARK  211  A    between atoms: _536  and  _537
REMARK  212  A    between atoms: _542  and  _543
REMARK  213  A    between atoms: _545  and  _547
REMARK  214  A    between atoms: _547  and  _548
REMARK  215  A    between atoms: _547  and  _550
REMARK  216  A    between atoms: _550  and  _551
REMARK  217  A    between atoms: _554  and  _556
REMARK  218  A    between atoms: _556  and  _557
REMARK  219  A    between atoms: _556  and  _559
REMARK  220  A    between atoms: _559  and  _560
REMARK  221  A    between atoms: _560  and  _561
REMARK  222  A    between atoms: _566  and  _568
REMARK  223  A    between atoms: _568  and  _569
REMARK  224  A    between atoms: _568  and  _571
REMARK  225  A    between atoms: _571  and  _572
REMARK                            x       y       z     vdW  Elec       q    Type
REMARK                         _______ _______ _______ _____ _____    ______ ____
ROOT
ATOM      1  CA  ASP A   1       4.643  63.170  -5.116  0.00  0.00    +0.144 C 
ENDROOT
BRANCH   1   2
ATOM      2  N   ASP A   1       3.921  63.867  -4.056  0.00  0.00    -0.239 NA
ATOM      3  H   ASP A   1       3.314  63.294  -3.435  0.00  0.00    +0.142 HD
ENDBRANCH   1   2
BRANCH   1   4
ATOM      4  C   ASP A   1       4.498  63.817  -6.485  0.00  0.00    +0.225 C 
ATOM      5  O   ASP A   1       3.399  64.234  -6.847  0.00  0.00    -0.287 OA
ENDBRANCH   1   4
BRANCH   1   6
ATOM      6  CB  ASP A   1       4.199  61.698  -5.165  0.00  0.00    +0.139 C 
BRANCH   6   7
ATOM      7  CG  ASP A   1       4.669  60.855  -3.990  0.00  0.00    +0.367 C 
ATOM      8  OD2 ASP A   1       5.311  61.409  -3.072  0.00  0.00    -0.246 OA
ATOM      9  OD1 ASP A   1       4.356  59.652  -3.967  0.00  0.00    -0.246 OA
ENDBRANCH   6   7
ENDBRANCH   1   6
TORSDOF 4
REMARK  Name = ../refined-set-2016/4a6l/4a6l_pocket.pdb
REMARK  225 active torsions:
REMARK  status: ('A' for Active; 'I' for Inactive)
REMARK    1  A    between atoms: _1  and  _5
REMARK    2  A    between atoms: _5  and  _6
REMARK    3  A    between atoms: _5  and  _8
REMARK    4  A    between atoms: _8  and  _9
REMARK    5  A    between atoms: _12  and  _14
REMARK    6  A    between atoms: _14  and  _15
REMARK    7  A    between atoms: _14  and  _17
REMARK    8  A    between atoms: _20  and  _22
REMARK    9  A    between atoms: _22  and  _23
REMARK   10  A    between atoms: _22  and  _25
REMARK   11  A    between atoms: _25  and  _26
REMARK   12  A    between atoms: _31  and  _33
REMARK   13  A    between atoms: _33  and  _34
REMARK   14  A    between atoms: _37  and  _39
REMARK   15  A    between atoms: _39  and  _40
REMARK   16  A    between atoms: _39  and  _42
REMARK   17  A    between atoms: _42  and  _43
REMARK   18  A    between atoms: _43  and  _44
REMARK   19  A    between atoms: _49  and  _51
REMARK   20  A    between atoms: _51  and  _52
REMARK   21  A    between atoms: _51  and  _54
REMARK   22  A    between atoms: _57  and  _59
REMARK   23  A    between atoms: _59  and  _60
REMARK   24  A    between atoms: _59  and  _62
REMARK   25  A    between atoms: _62  and  _63
REMARK   26  A    between atoms: _66  and  _68
REMARK   27  A    between atoms: _68  and  _69
REMARK   28  A    between atoms: _68  and  _71
REMARK   29  A    between atoms: _71  and  _72
REMARK   30  A    between atoms: _77  and  _79
REMARK   31  A    between atoms: _79  and  _80
REMARK   32  A    between atoms: _79  and  _82
REMARK   33  A    between atoms: _82  and  _83
REMARK   34  A    between atoms: _86  and  _88
REMARK   35  A    between atoms: _88  and  _89
REMARK   36  A    between atoms: _88  and  _91
REMARK   37  A    between atoms: _91  and  _92
REMARK   38  A    between atoms: _95  and  _97
REMARK   39  A    between atoms: _97  and  _98
REMARK   40  A    between atoms: _97  and  _100
REMARK   41  A    between atoms: _100  and  _101
REMARK   42  A    between atoms: _101  and  _102
REMARK   43  A    between atoms: _102  and  _103
REMARK   44  A    between atoms: _103  and  _104
REMARK   45  A    between atoms: _108  and  _110
REMARK   46  A    between atoms: _110  and  _111
REMARK   47  A    between atoms: _110  and  _113
REMARK   48  A    between atoms: _113  and  _114
REMARK   49  A    between atoms: _119  and  _120
REMARK   50  A    between atoms: _122  and  _124
REMARK   51  A    between atoms: _124  and  _125
REMARK   52  A    between atoms: _124  and  _127
REMARK   53  A    between atoms: _127  and  _128
REMARK   54  A    between atoms: _133  and  _135
REMARK   55  A    between atoms: _135  and  _136
REMARK   56  A    between atoms: _135  and  _138
REMARK   57  A    between atoms: _138  and  _139
REMARK   58  A    between atoms: _142  and  _144
REMARK   59  A    between atoms: _144  and  _145
REMARK   60  A    between atoms: _147  and  _149
REMARK   61  A    between atoms: _149  and  _150
REMARK   62  A    between atoms: _153  and  _155
REMARK   63  A    between atoms: _155  and  _156
REMARK   64  A    between atoms: _155  and  _158
REMARK   65  A    between atoms: _158  and  _159
REMARK   66  A    between atoms: _164  and  _165
REMARK   67  A    between atoms: _167  and  _169
REMARK   68  A    between atoms: _169  and  _170
REMARK   69  A    between atoms: _169  and  _172
REMARK   70  A    between atoms: _172  and  _173
REMARK   71  A    between atoms: _176  and  _178
REMARK   72  A    between atoms: _178  and  _179
REMARK   73  A    between atoms: _178  and  _181
REMARK   74  A    between atoms: _184  and  _186
REMARK   75  A    between atoms: _186  and  _187
REMARK   76  A    between atoms: _186  and  _189
REMARK   77  A    between atoms: _189  and  _190
REMARK   78  A    between atoms: _190  and  _191
REMARK   79  A    between atoms: _191  and  _192
REMARK   80  A    between atoms: _201  and  _203
REMARK   81  A    between atoms: _203  and  _204
REMARK   82  A    between atoms: _203  and  _206
REMARK   83  A    between atoms: _206  and  _207
REMARK   84  A    between atoms: _210  and  _212
REMARK   85  A    between atoms: _212  and  _213
REMARK   86  A    between atoms: _212  and  _215
REMARK   87  A    between atoms: _218  and  _220
REMARK   88  A    between atoms: _220  and  _221
REMARK   89  A    between atoms: _220  and  _223
REMARK   90  A    between atoms: _223  and  _224
REMARK   91  A    between atoms: _224  and  _225
REMARK   92  A    between atoms: _225  and  _226
REMARK   93  A    between atoms: _235  and  _237
REMARK   94  A    between atoms: _237  and  _238
REMARK   95  A    between atoms: _241  and  _243
REMARK   96  A    between atoms: _243  and  _244
REMARK   97  A    between atoms: _246  and  _248
REMARK   98  A    between atoms: _248  and  _249
REMARK   99  A    between atoms: _248  and  _251
REMARK  100  A    between atoms: _251  and  _252
REMARK  101  A    between atoms: _257  and  _259
REMARK  102  A    between atoms: _259  and  _260
REMARK  103  A    between atoms: _259  and  _262
REMARK  104  A    between atoms: _262  and  _263
REMARK  105  A    between atoms: _263  and  _264
REMARK  106  A    between atoms: _264  and  _265
REMARK  107  A    between atoms: _274  and  _276
REMARK  108  A    between atoms: _276  and  _277
REMARK  109  A    between atoms: _276  and  _279
REMARK  110  A    between atoms: _279  and  _280
REMARK  111  A    between atoms: _283  and  _285
REMARK  112  A    between atoms: _285  and  _286
REMARK  113  A    between atoms: _285  and  _288
REMARK  114  A    between atoms: _288  and  _289
REMARK  115  A    between atoms: _291  and  _293
REMARK  116  A    between atoms: _293  and  _294
REMARK  117  A    between atoms: _293  and  _296
REMARK  118  A    between atoms: _296  and  _297
REMARK  119  A    between atoms: _297  and  _408
REMARK  120  A    between atoms: _298  and  _300
REMARK  121  A    between atoms: _300  and  _301
REMARK  122  A    between atoms: _300  and  _303
REMARK  123  A    between atoms: _303  and  _304
REMARK  124  A    between atoms: _304  and  _305
REMARK  125  A    between atoms: _310  and  _312
REMARK  126  A    between atoms: _312  and  _313
REMARK  127  A    between atoms: _315  and  _317
REMARK  128  A    between atoms: _317  and  _318
REMARK  129  A    between atoms: _317  and  _320
REMARK  130  A    between atoms: _320  and  _321
REMARK  131  A    between atoms: _324  and  _326
REMARK  132  A    between atoms: _326  and  _327
REMARK  133  A    between atoms: _326  and  _329
REMARK  134  A    between atoms: _329  and  _330
REMARK  135  A    between atoms: _332  and  _334
REMARK  136  A    between atoms: _334  and  _335
REMARK  137  A    between atoms: _337  and  _339
REMARK  138  A    between atoms: _339  and  _340
REMARK  139  A    between atoms: _342  and  _344
REMARK  140  A    between atoms: _344  and  _345
REMARK  141  A    between atoms: _344  and  _347
REMARK  142  A    between atoms: _350  and  _352
REMARK  143  A    between atoms: _352  and  _353
REMARK  144  A    between atoms: _352  and  _355
REMARK  145  A    between atoms: _358  and  _360
REMARK  146  A    between atoms: _360  and  _361
REMARK  147  A    between atoms: _360  and  _363
REMARK  148  A    between atoms: _363  and  _364
REMARK  149  A    between atoms: _366  and  _368
REMARK  150  A    between atoms: _368  and  _369
REMARK  151  A    between atoms: _368  and  _371
REMARK  152  A    between atoms: _371  and  _372
REMARK  153  A    between atoms: _382  and  _384
REMARK  154  A    between atoms: _384  and  _385
REMARK  155  A    between atoms: _387  and  _389
REMARK  156  A    between atoms: _389  and  _390
REMARK  157  A    between atoms: _389  and  _392
REMARK  158  A    between atoms: _392  and  _393
REMARK  159  A    between atoms: _393  and  _394
REMARK  160  A    between atoms: _397  and  _399
REMARK  161  A    between atoms: _399  and  _400
REMARK  162  A    between atoms: _402  and  _404
REMARK  163  A    between atoms: _404  and  _405
REMARK  164  A    between atoms: _404  and  _407
REMARK  165  A    between atoms: _407  and  _408
REMARK  166  A    between atoms: _409  and  _411
REMARK  167  A    between atoms: _411  and  _412
REMARK  168  A    between atoms: _415  and  _417
REMARK  169  A    between atoms: _417  and  _418
REMARK  170  A    between atoms: _417  and  _420
REMARK  171  A    between atoms: _420  and  _421
REMARK  172  A    between atoms: _421  and  _422
REMARK  173  A    between atoms: _427  and  _429
REMARK  174  A    between atoms: _429  and  _430
REMARK  175  A    between atoms: _429  and  _432
REMARK  176  A    between atoms: _432  and  _433
REMARK  177  A    between atoms: _438  and  _440
REMARK  178  A    between atoms: _440  and  _441
REMARK  179  A    between atoms: _440  and  _443
REMARK  180  A    between atoms: _443  and  _444
REMARK  181  A    between atoms: _444  and  _445
REMARK  182  A    between atoms: _445  and  _446
REMARK  183  A    between atoms: _456  and  _457
REMARK  184  A    between atoms: _462  and  _464
REMARK  185  A    between atoms: _464  and  _465
REMARK  186  A    between atoms: _467  and  _469
REMARK  187  A    between atoms: _469  and  _470
REMARK  188  A    between atoms: _469  and  _472
REMARK  189  A    between atoms: _472  and  _473
REMARK  190  A    between atoms: _476  and  _478
REMARK  191  A    between atoms: _478  and  _479
REMARK  192  A    between atoms: _478  and  _481
REMARK  193  A    between atoms: _481  and  _482
REMARK  194  A    between atoms: _487  and  _488
REMARK  195  A    between atoms: _490  and  _492
REMARK  196  A    between atoms: _492  and  _493
REMARK  197  A    between atoms: _496  and  _497
REMARK  198  A    between atoms: _502  and  _504
REMARK  199  A    between atoms: _504  and  _505
REMARK  200  A    between atoms: _504  and  _507
REMARK  201  A    between atoms: _507  and  _508
REMARK  202  A    between atoms: _511  and  _513
REMARK  203  A    between atoms: _513  and  _514
REMARK  204  A    between atoms: _513  and  _516
REMARK  205  A    between atoms: _519  and  _521
REMARK  206  A    between atoms: _521  and  _522
REMARK  207  A    between atoms: _521  and  _524
REMARK  208  A    between atoms: _524  and  _525
REMARK  209  A    between atoms: _533  and  _534
REMARK  210  A    between atoms: _533  and  _536
REMARK  211  A    between atoms: _536  and  _537
REMARK  212  A    between atoms: _542  and  _543
REMARK  213  A    between atoms: _545  and  _547
REMARK  214  A    between atoms: _547  and  _548
REMARK  215  A    between atoms: _547  and  _550
REMARK  216  A    between atoms: _550  and  _551
REMARK  217  A    between atoms: _554  and  _556
REMARK  218  A    between atoms: _556  and  _557
REMARK  219  A    between atoms: _556  and  _559
REMARK  220  A    between atoms: _559  and  _560
REMARK  221  A    between atoms: _560  and  _561
REMARK  222  A    between atoms: _566  and  _568
REMARK  223  A    between atoms: _568  and  _569
REMARK  224  A    between atoms: _568  and  _571
REMARK  225  A    between atoms: _571  and  _572
REMARK                            x       y       z     vdW  Elec       q    Type
REMARK                         _______ _______ _______ _____ _____    ______ ____
ROOT
ATOM      1  C   ASN A   1       4.719  57.096  -8.660  0.00  0.00    +0.239 C 
ATOM      2  N   ASP A   2       4.780  56.903  -7.316  0.00  0.00    -0.298 N 
ATOM      3  H   ASP A   2       3.919  57.118  -6.773  0.00  0.00    +0.150 HD
ATOM      4  O   ASN A   1       5.664  56.915  -9.436  0.00  0.00    -0.274 OA
ENDROOT
BRANCH   1   5
ATOM      5  CA  ASN A   1       3.419  57.648  -9.206  0.00  0.00    +0.154 C 
BRANCH   5   6
ATOM      6  N   ASN A   1       3.658  58.883  -9.947  0.00  0.00    -0.238 NA
ATOM      7  H   ASN A   1       3.390  58.932 -10.951  0.00  0.00    +0.142 HD
ENDBRANCH   5   6
BRANCH   5   8
ATOM      8  CB  ASN A   1       2.743  56.634 -10.091  0.00  0.00    +0.111 C 
BRANCH   8   9
ATOM      9  CG  ASN A   1       1.436  57.139 -10.590  0.00  0.00    +0.221 C 
ATOM     10  OD1 ASN A   1       0.448  57.133  -9.870  0.00  0.00    -0.275 OA
ATOM     11  ND2 ASN A   1       1.415  57.605 -11.828  0.00  0.00    -0.329 N 
ATOM     12 HD21 ASN A   1       0.533  57.986 -12.225  0.00  0.00    +0.145 HD
ATOM     13 HD22 ASN A   1       2.281  57.590 -12.404  0.00  0.00    +0.145 HD
ENDBRANCH   8   9
ENDBRANCH   5   8
ENDBRANCH   1   5
BRANCH   2  14
ATOM     14  CA  ASP A   2       5.945  56.419  -6.549  0.00  0.00    +0.148 C 
BRANCH  14  15
ATOM     15  C   ASP A   2       7.226  57.247  -6.810  0.00  0.00    +0.227 C 
ATOM     16  O   ASP A   2       8.326  56.702  -6.851  0.00  0.00    -0.286 OA
ENDBRANCH  14  15
BRANCH  14  17
ATOM     17  CB  ASP A   2       6.189  54.905  -6.767  0.00  0.00    +0.142 C 
BRANCH  17  18
ATOM     18  CG  ASP A   2       4.971  54.013  -6.609  0.00  0.00    +0.367 C 
ATOM     19  OD2 ASP A   2       4.281  54.118  -5.560  0.00  0.00    -0.246 OA
ATOM     20  OD1 ASP A   2       4.728  53.177  -7.513  0.00  0.00    -0.246 OA
ENDBRANCH  17  18
ENDBRANCH  14  17
ENDBRANCH   2  14
TORSDOF 8
REMARK  Name = ../refined-set-2016/4a6l/4a6l_pocket.pdb
REMARK  225 active torsions:
REMARK  status: ('A' for Active; 'I' for Inactive)
REMARK    1  A    between atoms: _1  and  _5
REMARK    2  A    between atoms: _5  and  _6
REMARK    3  A    between atoms: _5  and  _8
REMARK    4  A    between atoms: _8  and  _9
REMARK    5  A    between atoms: _12  and  _14
REMARK    6  A    between atoms: _14  and  _15
REMARK    7  A    between atoms: _14  and  _17
REMARK    8  A    between atoms: _20  and  _22
REMARK    9  A    between atoms: _22  and  _23
REMARK   10  A    between atoms: _22  and  _25
REMARK   11  A    between atoms: _25  and  _26
REMARK   12  A    between atoms: _31  and  _33
REMARK   13  A    between atoms: _33  and  _34
REMARK   14  A    between atoms: _37  and  _39
REMARK   15  A    between atoms: _39  and  _40
REMARK   16  A    between atoms: _39  and  _42
REMARK   17  A    between atoms: _42  and  _43
REMARK   18  A    between atoms: _43  and  _44
REMARK   19  A    between atoms: _49  and  _51
REMARK   20  A    between atoms: _51  and  _52
REMARK   21  A    between atoms: _51  and  _54
REMARK   22  A    between atoms: _57  and  _59
REMARK   23  A    between atoms: _59  and  _60
REMARK   24  A    between atoms: _59  and  _62
REMARK   25  A    between atoms: _62  and  _63
REMARK   26  A    between atoms: _66  and  _68
REMARK   27  A    between atoms: _68  and  _69
REMARK   28  A    between atoms: _68  and  _71
REMARK   29  A    between atoms: _71  and  _72
REMARK   30  A    between atoms: _77  and  _79
REMARK   31  A    between atoms: _79  and  _80
REMARK   32  A    between atoms: _79  and  _82
REMARK   33  A    between atoms: _82  and  _83
REMARK   34  A    between atoms: _86  and  _88
REMARK   35  A    between atoms: _88  and  _89
REMARK   36  A    between atoms: _88  and  _91
REMARK   37  A    between atoms: _91  and  _92
REMARK   38  A    between atoms: _95  and  _97
REMARK   39  A    between atoms: _97  and  _98
REMARK   40  A    between atoms: _97  and  _100
REMARK   41  A    between atoms: _100  and  _101
REMARK   42  A    between atoms: _101  and  _102
REMARK   43  A    between atoms: _102  and  _103
REMARK   44  A    between atoms: _103  and  _104
REMARK   45  A    between atoms: _108  and  _110
REMARK   46  A    between atoms: _110  and  _111
REMARK   47  A    between atoms: _110  and  _113
REMARK   48  A    between atoms: _113  and  _114
REMARK   49  A    between atoms: _119  and  _120
REMARK   50  A    between atoms: _122  and  _124
REMARK   51  A    between atoms: _124  and  _125
REMARK   52  A    between atoms: _124  and  _127
REMARK   53  A    between atoms: _127  and  _128
REMARK   54  A    between atoms: _133  and  _135
REMARK   55  A    between atoms: _135  and  _136
REMARK   56  A    between atoms: _135  and  _138
REMARK   57  A    between atoms: _138  and  _139
REMARK   58  A    between atoms: _142  and  _144
REMARK   59  A    between atoms: _144  and  _145
REMARK   60  A    between atoms: _147  and  _149
REMARK   61  A    between atoms: _149  and  _150
REMARK   62  A    between atoms: _153  and  _155
REMARK   63  A    between atoms: _155  and  _156
REMARK   64  A    between atoms: _155  and  _158
REMARK   65  A    between atoms: _158  and  _159
REMARK   66  A    between atoms: _164  and  _165
REMARK   67  A    between atoms: _167  and  _169
REMARK   68  A    between atoms: _169  and  _170
REMARK   69  A    between atoms: _169  and  _172
REMARK   70  A    between atoms: _172  and  _173
REMARK   71  A    between atoms: _176  and  _178
REMARK   72  A    between atoms: _178  and  _179
REMARK   73  A    between atoms: _178  and  _181
REMARK   74  A    between atoms: _184  and  _186
REMARK   75  A    between atoms: _186  and  _187
REMARK   76  A    between atoms: _186  and  _189
REMARK   77  A    between atoms: _189  and  _190
REMARK   78  A    between atoms: _190  and  _191
REMARK   79  A    between atoms: _191  and  _192
REMARK   80  A    between atoms: _201  and  _203
REMARK   81  A    between atoms: _203  and  _204
REMARK   82  A    between atoms: _203  and  _206
REMARK   83  A    between atoms: _206  and  _207
REMARK   84  A    between atoms: _210  and  _212
REMARK   85  A    between atoms: _212  and  _213
REMARK   86  A    between atoms: _212  and  _215
REMARK   87  A    between atoms: _218  and  _220
REMARK   88  A    between atoms: _220  and  _221
REMARK   89  A    between atoms: _220  and  _223
REMARK   90  A    between atoms: _223  and  _224
REMARK   91  A    between atoms: _224  and  _225
REMARK   92  A    between atoms: _225  and  _226
REMARK   93  A    between atoms: _235  and  _237
REMARK   94  A    between atoms: _237  and  _238
REMARK   95  A    between atoms: _241  and  _243
REMARK   96  A    between atoms: _243  and  _244
REMARK   97  A    between atoms: _246  and  _248
REMARK   98  A    between atoms: _248  and  _249
REMARK   99  A    between atoms: _248  and  _251
REMARK  100  A    between atoms: _251  and  _252
REMARK  101  A    between atoms: _257  and  _259
REMARK  102  A    between atoms: _259  and  _260
REMARK  103  A    between atoms: _259  and  _262
REMARK  104  A    between atoms: _262  and  _263
REMARK  105  A    between atoms: _263  and  _264
REMARK  106  A    between atoms: _264  and  _265
REMARK  107  A    between atoms: _274  and  _276
REMARK  108  A    between atoms: _276  and  _277
REMARK  109  A    between atoms: _276  and  _279
REMARK  110  A    between atoms: _279  and  _280
REMARK  111  A    between atoms: _283  and  _285
REMARK  112  A    between atoms: _285  and  _286
REMARK  113  A    between atoms: _285  and  _288
REMARK  114  A    between atoms: _288  and  _289
REMARK  115  A    between atoms: _291  and  _293
REMARK  116  A    between atoms: _293  and  _294
REMARK  117  A    between atoms: _293  and  _296
REMARK  118  A    between atoms: _296  and  _297
REMARK  119  A    between atoms: _297  and  _408
REMARK  120  A    between atoms: _298  and  _300
REMARK  121  A    between atoms: _300  and  _301
REMARK  122  A    between atoms: _300  and  _303
REMARK  123  A    between atoms: _303  and  _304
REMARK  124  A    between atoms: _304  and  _305
REMARK  125  A    between atoms: _310  and  _312
REMARK  126  A    between atoms: _312  and  _313
REMARK  127  A    between atoms: _315  and  _317
REMARK  128  A    between atoms: _317  and  _318
REMARK  129  A    between atoms: _317  and  _320
REMARK  130  A    between atoms: _320  and  _321
REMARK  131  A    between atoms: _324  and  _326
REMARK  132  A    between atoms: _326  and  _327
REMARK  133  A    between atoms: _326  and  _329
REMARK  134  A    between atoms: _329  and  _330
REMARK  135  A    between atoms: _332  and  _334
REMARK  136  A    between atoms: _334  and  _335
REMARK  137  A    between atoms: _337  and  _339
REMARK  138  A    between atoms: _339  and  _340
REMARK  139  A    between atoms: _342  and  _344
REMARK  140  A    between atoms: _344  and  _345
REMARK  141  A    between atoms: _344  and  _347
REMARK  142  A    between atoms: _350  and  _352
REMARK  143  A    between atoms: _352  and  _353
REMARK  144  A    between atoms: _352  and  _355
REMARK  145  A    between atoms: _358  and  _360
REMARK  146  A    between atoms: _360  and  _361
REMARK  147  A    between atoms: _360  and  _363
REMARK  148  A    between atoms: _363  and  _364
REMARK  149  A    between atoms: _366  and  _368
REMARK  150  A    between atoms: _368  and  _369
REMARK  151  A    between atoms: _368  and  _371
REMARK  152  A    between atoms: _371  and  _372
REMARK  153  A    between atoms: _382  and  _384
REMARK  154  A    between atoms: _384  and  _385
REMARK  155  A    between atoms: _387  and  _389
REMARK  156  A    between atoms: _389  and  _390
REMARK  157  A    between atoms: _389  and  _392
REMARK  158  A    between atoms: _392  and  _393
REMARK  159  A    between atoms: _393  and  _394
REMARK  160  A    between atoms: _397  and  _399
REMARK  161  A    between atoms: _399  and  _400
REMARK  162  A    between atoms: _402  and  _404
REMARK  163  A    between atoms: _404  and  _405
REMARK  164  A    between atoms: _404  and  _407
REMARK  165  A    between atoms: _407  and  _408
REMARK  166  A    between atoms: _409  and  _411
REMARK  167  A    between atoms: _411  and  _412
REMARK  168  A    between atoms: _415  and  _417
REMARK  169  A    between atoms: _417  and  _418
REMARK  170  A    between atoms: _417  and  _420
REMARK  171  A    between atoms: _420  and  _421
REMARK  172  A    between atoms: _421  and  _422
REMARK  173  A    between atoms: _427  and  _429
REMARK  174  A    between atoms: _429  and  _430
REMARK  175  A    between atoms: _429  and  _432
REMARK  176  A    between atoms: _432  and  _433
REMARK  177  A    between atoms: _438  and  _440
REMARK  178  A    between atoms: _440  and  _441
REMARK  179  A    between atoms: _440  and  _443
REMARK  180  A    between atoms: _443  and  _444
REMARK  181  A    between atoms: _444  and  _445
REMARK  182  A    between atoms: _445  and  _446
REMARK  183  A    between atoms: _456  and  _457
REMARK  184  A    between atoms: _462  and  _464
REMARK  185  A    between atoms: _464  and  _465
REMARK  186  A    between atoms: _467  and  _469
REMARK  187  A    between atoms: _469  and  _470
REMARK  188  A    between atoms: _469  and  _472
REMARK  189  A    between atoms: _472  and  _473
REMARK  190  A    between atoms: _476  and  _478
REMARK  191  A    between atoms: _478  and  _479
REMARK  192  A    between atoms: _478  and  _481
REMARK  193  A    between atoms: _481  and  _482
REMARK  194  A    between atoms: _487  and  _488
REMARK  195  A    between atoms: _490  and  _492
REMARK  196  A    between atoms: _492  and  _493
REMARK  197  A    between atoms: _496  and  _497
REMARK  198  A    between atoms: _502  and  _504
REMARK  199  A    between atoms: _504  and  _505
REMARK  200  A    between atoms: _504  and  _507
REMARK  201  A    between atoms: _507  and  _508
REMARK  202  A    between atoms: _511  and  _513
REMARK  203  A    between atoms: _513  and  _514
REMARK  204  A    between atoms: _513  and  _516
REMARK  205  A    between atoms: _519  and  _521
REMARK  206  A    between atoms: _521  and  _522
REMARK  207  A    between atoms: _521  and  _524
REMARK  208  A    between atoms: _524  and  _525
REMARK  209  A    between atoms: _533  and  _534
REMARK  210  A    between atoms: _533  and  _536
REMARK  211  A    between atoms: _536  and  _537
REMARK  212  A    between atoms: _542  and  _543
REMARK  213  A    between atoms: _545  and  _547
REMARK  214  A    between atoms: _547  and  _548
REMARK  215  A    between atoms: _547  and  _550
REMARK  216  A    between atoms: _550  and  _551
REMARK  217  A    between atoms: _554  and  _556
REMARK  218  A    between atoms: _556  and  _557
REMARK  219  A    between atoms: _556  and  _559
REMARK  220  A    between atoms: _559  and  _560
REMARK  221  A    between atoms: _560  and  _561
REMARK  222  A    between atoms: _566  and  _568
REMARK  223  A    between atoms: _568  and  _569
REMARK  224  A    between atoms: _568  and  _571
REMARK  225  A    between atoms: _571  and  _572
REMARK                            x       y       z     vdW  Elec       q    Type
REMARK                         _______ _______ _______ _____ _____    ______ ____
ROOT
ATOM      1  CA  ASP A   1     -17.930  58.692 -13.335  0.00  0.00    +0.144 C 
ENDROOT
BRANCH   1   2
ATOM      2  N   ASP A   1     -17.426  59.993 -13.746  0.00  0.00    -0.239 NA
ATOM      3  H   ASP A   1     -18.071  60.808 -13.709  0.00  0.00    +0.142 HD
ENDBRANCH   1   2
BRANCH   1   4
ATOM      4  C   ASP A   1     -17.823  57.693 -14.485  0.00  0.00    +0.225 C 
ATOM      5  O   ASP A   1     -17.381  56.567 -14.258  0.00  0.00    -0.287 OA
ENDBRANCH   1   4
BRANCH   1   6
ATOM      6  CB  ASP A   1     -19.364  58.793 -12.778  0.00  0.00    +0.139 C 
BRANCH   6   7
ATOM      7  CG  ASP A   1     -19.916  57.481 -12.243  0.00  0.00    +0.367 C 
ATOM      8  OD2 ASP A   1     -19.276  56.887 -11.347  0.00  0.00    -0.246 OA
ATOM      9  OD1 ASP A   1     -20.990  57.046 -12.723  0.00  0.00    -0.246 OA
ENDBRANCH   6   7
ENDBRANCH   1   6
TORSDOF 4
REMARK  Name = ../refined-set-2016/4a6l/4a6l_pocket.pdb
REMARK  225 active torsions:
REMARK  status: ('A' for Active; 'I' for Inactive)
REMARK    1  A    between atoms: _1  and  _5
REMARK    2  A    between atoms: _5  and  _6
REMARK    3  A    between atoms: _5  and  _8
REMARK    4  A    between atoms: _8  and  _9
REMARK    5  A    between atoms: _12  and  _14
REMARK    6  A    between atoms: _14  and  _15
REMARK    7  A    between atoms: _14  and  _17
REMARK    8  A    between atoms: _20  and  _22
REMARK    9  A    between atoms: _22  and  _23
REMARK   10  A    between atoms: _22  and  _25
REMARK   11  A    between atoms: _25  and  _26
REMARK   12  A    between atoms: _31  and  _33
REMARK   13  A    between atoms: _33  and  _34
REMARK   14  A    between atoms: _37  and  _39
REMARK   15  A    between atoms: _39  and  _40
REMARK   16  A    between atoms: _39  and  _42
REMARK   17  A    between atoms: _42  and  _43
REMARK   18  A    between atoms: _43  and  _44
REMARK   19  A    between atoms: _49  and  _51
REMARK   20  A    between atoms: _51  and  _52
REMARK   21  A    between atoms: _51  and  _54
REMARK   22  A    between atoms: _57  and  _59
REMARK   23  A    between atoms: _59  and  _60
REMARK   24  A    between atoms: _59  and  _62
REMARK   25  A    between atoms: _62  and  _63
REMARK   26  A    between atoms: _66  and  _68
REMARK   27  A    between atoms: _68  and  _69
REMARK   28  A    between atoms: _68  and  _71
REMARK   29  A    between atoms: _71  and  _72
REMARK   30  A    between atoms: _77  and  _79
REMARK   31  A    between atoms: _79  and  _80
REMARK   32  A    between atoms: _79  and  _82
REMARK   33  A    between atoms: _82  and  _83
REMARK   34  A    between atoms: _86  and  _88
REMARK   35  A    between atoms: _88  and  _89
REMARK   36  A    between atoms: _88  and  _91
REMARK   37  A    between atoms: _91  and  _92
REMARK   38  A    between atoms: _95  and  _97
REMARK   39  A    between atoms: _97  and  _98
REMARK   40  A    between atoms: _97  and  _100
REMARK   41  A    between atoms: _100  and  _101
REMARK   42  A    between atoms: _101  and  _102
REMARK   43  A    between atoms: _102  and  _103
REMARK   44  A    between atoms: _103  and  _104
REMARK   45  A    between atoms: _108  and  _110
REMARK   46  A    between atoms: _110  and  _111
REMARK   47  A    between atoms: _110  and  _113
REMARK   48  A    between atoms: _113  and  _114
REMARK   49  A    between atoms: _119  and  _120
REMARK   50  A    between atoms: _122  and  _124
REMARK   51  A    between atoms: _124  and  _125
REMARK   52  A    between atoms: _124  and  _127
REMARK   53  A    between atoms: _127  and  _128
REMARK   54  A    between atoms: _133  and  _135
REMARK   55  A    between atoms: _135  and  _136
REMARK   56  A    between atoms: _135  and  _138
REMARK   57  A    between atoms: _138  and  _139
REMARK   58  A    between atoms: _142  and  _144
REMARK   59  A    between atoms: _144  and  _145
REMARK   60  A    between atoms: _147  and  _149
REMARK   61  A    between atoms: _149  and  _150
REMARK   62  A    between atoms: _153  and  _155
REMARK   63  A    between atoms: _155  and  _156
REMARK   64  A    between atoms: _155  and  _158
REMARK   65  A    between atoms: _158  and  _159
REMARK   66  A    between atoms: _164  and  _165
REMARK   67  A    between atoms: _167  and  _169
REMARK   68  A    between atoms: _169  and  _170
REMARK   69  A    between atoms: _169  and  _172
REMARK   70  A    between atoms: _172  and  _173
REMARK   71  A    between atoms: _176  and  _178
REMARK   72  A    between atoms: _178  and  _179
REMARK   73  A    between atoms: _178  and  _181
REMARK   74  A    between atoms: _184  and  _186
REMARK   75  A    between atoms: _186  and  _187
REMARK   76  A    between atoms: _186  and  _189
REMARK   77  A    between atoms: _189  and  _190
REMARK   78  A    between atoms: _190  and  _191
REMARK   79  A    between atoms: _191  and  _192
REMARK   80  A    between atoms: _201  and  _203
REMARK   81  A    between atoms: _203  and  _204
REMARK   82  A    between atoms: _203  and  _206
REMARK   83  A    between atoms: _206  and  _207
REMARK   84  A    between atoms: _210  and  _212
REMARK   85  A    between atoms: _212  and  _213
REMARK   86  A    between atoms: _212  and  _215
REMARK   87  A    between atoms: _218  and  _220
REMARK   88  A    between atoms: _220  and  _221
REMARK   89  A    between atoms: _220  and  _223
REMARK   90  A    between atoms: _223  and  _224
REMARK   91  A    between atoms: _224  and  _225
REMARK   92  A    between atoms: _225  and  _226
REMARK   93  A    between atoms: _235  and  _237
REMARK   94  A    between atoms: _237  and  _238
REMARK   95  A    between atoms: _241  and  _243
REMARK   96  A    between atoms: _243  and  _244
REMARK   97  A    between atoms: _246  and  _248
REMARK   98  A    between atoms: _248  and  _249
REMARK   99  A    between atoms: _248  and  _251
REMARK  100  A    between atoms: _251  and  _252
REMARK  101  A    between atoms: _257  and  _259
REMARK  102  A    between atoms: _259  and  _260
REMARK  103  A    between atoms: _259  and  _262
REMARK  104  A    between atoms: _262  and  _263
REMARK  105  A    between atoms: _263  and  _264
REMARK  106  A    between atoms: _264  and  _265
REMARK  107  A    between atoms: _274  and  _276
REMARK  108  A    between atoms: _276  and  _277
REMARK  109  A    between atoms: _276  and  _279
REMARK  110  A    between atoms: _279  and  _280
REMARK  111  A    between atoms: _283  and  _285
REMARK  112  A    between atoms: _285  and  _286
REMARK  113  A    between atoms: _285  and  _288
REMARK  114  A    between atoms: _288  and  _289
REMARK  115  A    between atoms: _291  and  _293
REMARK  116  A    between atoms: _293  and  _294
REMARK  117  A    between atoms: _293  and  _296
REMARK  118  A    between atoms: _296  and  _297
REMARK  119  A    between atoms: _297  and  _408
REMARK  120  A    between atoms: _298  and  _300
REMARK  121  A    between atoms: _300  and  _301
REMARK  122  A    between atoms: _300  and  _303
REMARK  123  A    between atoms: _303  and  _304
REMARK  124  A    between atoms: _304  and  _305
REMARK  125  A    between atoms: _310  and  _312
REMARK  126  A    between atoms: _312  and  _313
REMARK  127  A    between atoms: _315  and  _317
REMARK  128  A    between atoms: _317  and  _318
REMARK  129  A    between atoms: _317  and  _320
REMARK  130  A    between atoms: _320  and  _321
REMARK  131  A    between atoms: _324  and  _326
REMARK  132  A    between atoms: _326  and  _327
REMARK  133  A    between atoms: _326  and  _329
REMARK  134  A    between atoms: _329  and  _330
REMARK  135  A    between atoms: _332  and  _334
REMARK  136  A    between atoms: _334  and  _335
REMARK  137  A    between atoms: _337  and  _339
REMARK  138  A    between atoms: _339  and  _340
REMARK  139  A    between atoms: _342  and  _344
REMARK  140  A    between atoms: _344  and  _345
REMARK  141  A    between atoms: _344  and  _347
REMARK  142  A    between atoms: _350  and  _352
REMARK  143  A    between atoms: _352  and  _353
REMARK  144  A    between atoms: _352  and  _355
REMARK  145  A    between atoms: _358  and  _360
REMARK  146  A    between atoms: _360  and  _361
REMARK  147  A    between atoms: _360  and  _363
REMARK  148  A    between atoms: _363  and  _364
REMARK  149  A    between atoms: _366  and  _368
REMARK  150  A    between atoms: _368  and  _369
REMARK  151  A    between atoms: _368  and  _371
REMARK  152  A    between atoms: _371  and  _372
REMARK  153  A    between atoms: _382  and  _384
REMARK  154  A    between atoms: _384  and  _385
REMARK  155  A    between atoms: _387  and  _389
REMARK  156  A    between atoms: _389  and  _390
REMARK  157  A    between atoms: _389  and  _392
REMARK  158  A    between atoms: _392  and  _393
REMARK  159  A    between atoms: _393  and  _394
REMARK  160  A    between atoms: _397  and  _399
REMARK  161  A    between atoms: _399  and  _400
REMARK  162  A    between atoms: _402  and  _404
REMARK  163  A    between atoms: _404  and  _405
REMARK  164  A    between atoms: _404  and  _407
REMARK  165  A    between atoms: _407  and  _408
REMARK  166  A    between atoms: _409  and  _411
REMARK  167  A    between atoms: _411  and  _412
REMARK  168  A    between atoms: _415  and  _417
REMARK  169  A    between atoms: _417  and  _418
REMARK  170  A    between atoms: _417  and  _420
REMARK  171  A    between atoms: _420  and  _421
REMARK  172  A    between atoms: _421  and  _422
REMARK  173  A    between atoms: _427  and  _429
REMARK  174  A    between atoms: _429  and  _430
REMARK  175  A    between atoms: _429  and  _432
REMARK  176  A    between atoms: _432  and  _433
REMARK  177  A    between atoms: _438  and  _440
REMARK  178  A    between atoms: _440  and  _441
REMARK  179  A    between atoms: _440  and  _443
REMARK  180  A    between atoms: _443  and  _444
REMARK  181  A    between atoms: _444  and  _445
REMARK  182  A    between atoms: _445  and  _446
REMARK  183  A    between atoms: _456  and  _457
REMARK  184  A    between atoms: _462  and  _464
REMARK  185  A    between atoms: _464  and  _465
REMARK  186  A    between atoms: _467  and  _469
REMARK  187  A    between atoms: _469  and  _470
REMARK  188  A    between atoms: _469  and  _472
REMARK  189  A    between atoms: _472  and  _473
REMARK  190  A    between atoms: _476  and  _478
REMARK  191  A    between atoms: _478  and  _479
REMARK  192  A    between atoms: _478  and  _481
REMARK  193  A    between atoms: _481  and  _482
REMARK  194  A    between atoms: _487  and  _488
REMARK  195  A    between atoms: _490  and  _492
REMARK  196  A    between atoms: _492  and  _493
REMARK  197  A    between atoms: _496  and  _497
REMARK  198  A    between atoms: _502  and  _504
REMARK  199  A    between atoms: _504  and  _505
REMARK  200  A    between atoms: _504  and  _507
REMARK  201  A    between atoms: _507  and  _508
REMARK  202  A    between atoms: _511  and  _513
REMARK  203  A    between atoms: _513  and  _514
REMARK  204  A    between atoms: _513  and  _516
REMARK  205  A    between atoms: _519  and  _521
REMARK  206  A    between atoms: _521  and  _522
REMARK  207  A    between atoms: _521  and  _524
REMARK  208  A    between atoms: _524  and  _525
REMARK  209  A    between atoms: _533  and  _534
REMARK  210  A    between atoms: _533  and  _536
REMARK  211  A    between atoms: _536  and  _537
REMARK  212  A    between atoms: _542  and  _543
REMARK  213  A    between atoms: _545  and  _547
REMARK  214  A    between atoms: _547  and  _548
REMARK  215  A    between atoms: _547  and  _550
REMARK  216  A    between atoms: _550  and  _551
REMARK  217  A    between atoms: _554  and  _556
REMARK  218  A    between atoms: _556  and  _557
REMARK  219  A    between atoms: _556  and  _559
REMARK  220  A    between atoms: _559  and  _560
REMARK  221  A    between atoms: _560  and  _561
REMARK  222  A    between atoms: _566  and  _568
REMARK  223  A    between atoms: _568  and  _569
REMARK  224  A    between atoms: _568  and  _571
REMARK  225  A    between atoms: _571  and  _572
REMARK                            x       y       z     vdW  Elec       q    Type
REMARK                         _______ _______ _______ _____ _____    ______ ____
ROOT
ATOM      1  CA  LEU A   4     -13.628  52.516 -18.614  0.00  0.00    +0.149 C 
ENDROOT
BRANCH   1   2
ATOM      2  C   LEU A   4     -12.478  51.643 -18.104  0.00  0.00    +0.241 C 
ATOM      3  O   LEU A   4     -11.729  52.073 -17.213  0.00  0.00    -0.273 OA
ATOM      4  N   GLY A   5     -12.391  50.420 -18.631  0.00  0.00    -0.295 N 
ATOM      5  H   GLY A   5     -13.073  50.149 -19.368  0.00  0.00    +0.150 HD
BRANCH   4   6
ATOM      6  CA  GLY A   5     -11.386  49.446 -18.223  0.00  0.00    +0.176 C 
BRANCH   6   7
ATOM      7  C   GLY A   5     -11.616  48.903 -16.819  0.00  0.00    +0.243 C 
ATOM      8  O   GLY A   5     -10.672  48.457 -16.164  0.00  0.00    -0.273 OA
ATOM      9  N   ALA A   6     -12.889  48.912 -16.356  0.00  0.00    -0.297 N 
ATOM     10  H   ALA A   6     -13.630  49.307 -16.969  0.00  0.00    +0.150 HD
BRANCH   9  11
ATOM     11  CA  ALA A   6     -13.285  48.395 -15.035  0.00  0.00    +0.149 C 
ATOM     12  CB  ALA A   6     -13.596  49.544 -14.084  0.00  0.00    +0.031 C 
BRANCH  11  13
ATOM     13  C   ALA A   6     -14.492  47.467 -15.172  0.00  0.00    +0.241 C 
ATOM     14  N   TYR A   7     -14.689  46.541 -14.201  0.00  0.00    -0.297 N 
ATOM     15  H   TYR A   7     -14.008  46.489 -13.417  0.00  0.00    +0.150 HD
ATOM     16  O   ALA A   6     -15.238  47.583 -16.153  0.00  0.00    -0.273 OA
BRANCH  14  17
ATOM     17  CA  TYR A   7     -15.828  45.606 -14.211  0.00  0.00    +0.153 C 
BRANCH  17  18
ATOM     18  C   TYR A   7     -17.114  46.220 -13.639  0.00  0.00    +0.241 C 
ATOM     19  N   THR A   8     -16.966  47.318 -12.871  0.00  0.00    -0.296 N 
ATOM     20  H   THR A   8     -16.004  47.696 -12.759  0.00  0.00    +0.150 HD
ATOM     21  O   TYR A   7     -18.207  45.681 -13.848  0.00  0.00    -0.273 OA
BRANCH  19  22
ATOM     22  CA  THR A   8     -18.046  48.020 -12.183  0.00  0.00    +0.164 C 
BRANCH  22  23
ATOM     23  CB  THR A   8     -17.480  49.241 -11.442  0.00  0.00    +0.136 C 
ATOM     24  CG2 THR A   8     -18.466  49.826 -10.434  0.00  0.00    +0.034 C 
BRANCH  23  25
ATOM     25  OG1 THR A   8     -16.257  48.874 -10.783  0.00  0.00    -0.382 OA
ATOM     26  HG1 THR A   8     -16.438  48.148 -10.135  0.00  0.00    +0.210 HD
ENDBRANCH  23  25
ENDBRANCH  22  23
BRANCH  22  27
ATOM     27  C   THR A   8     -19.182  48.357 -13.149  0.00  0.00    +0.229 C 
ATOM     28  O   THR A   8     -18.928  48.918 -14.231  0.00  0.00    -0.286 OA
ENDBRANCH  22  27
ENDBRANCH  19  22
ENDBRANCH  17  18
BRANCH  17  29
ATOM     29  CB  TYR A   7     -15.500  44.333 -13.419  0.00  0.00    +0.055 C 
BRANCH  29  30
ATOM     30  CG  TYR A   7     -14.414  43.470 -14.015  0.00  0.00    -0.020 A 
ATOM     31  CD2 TYR A   7     -13.118  43.488 -13.497  0.00  0.00    -0.001 A 
ATOM     32  CE2 TYR A   7     -12.145  42.597 -13.957  0.00  0.00    +0.036 A 
ATOM     33  CZ  TYR A   7     -12.453  41.710 -14.979  0.00  0.00    +0.134 A 
ATOM     34  CE1 TYR A   7     -13.729  41.689 -15.515  0.00  0.00    +0.036 A 
ATOM     35  CD1 TYR A   7     -14.702  42.550 -15.021  0.00  0.00    -0.001 A 
BRANCH  33  36
ATOM     36  OH  TYR A   7     -11.500  40.890 -15.528  0.00  0.00    -0.506 OA
ATOM     37  HH  TYR A   7     -11.912  40.336 -16.237  0.00  0.00    +0.292 HD
ENDBRANCH  33  36
ENDBRANCH  29  30
ENDBRANCH  17  29
ENDBRANCH  14  17
ENDBRANCH  11  13
ENDBRANCH   9  11
ENDBRANCH   6   7
ENDBRANCH   4   6
ENDBRANCH   1   2
BRANCH   1  40
ATOM     38  C   HIS A   3     -15.213  52.168 -16.733  0.00  0.00    +0.241 C 
ATOM     39  O   HIS A   3     -15.304  50.966 -16.962  0.00  0.00    -0.273 OA
ATOM     40  N   LEU A   4     -14.439  52.983 -17.466  0.00  0.00    -0.297 N 
ATOM     41  H   LEU A   4     -14.407  53.992 -17.216  0.00  0.00    +0.150 HD
BRANCH  38  42
ATOM     42  CA  HIS A   3     -15.993  52.775 -15.544  0.00  0.00    +0.155 C 
BRANCH  42  45
ATOM     43  C   TYR A   2     -14.375  54.169 -14.280  0.00  0.00    +0.241 C 
ATOM     44  O   TYR A   2     -13.793  53.185 -13.812  0.00  0.00    -0.273 OA
ATOM     45  N   HIS A   3     -15.439  54.071 -15.112  0.00  0.00    -0.297 N 
ATOM     46  H   HIS A   3     -15.883  54.945 -15.460  0.00  0.00    +0.150 HD
BRANCH  43  47
ATOM     47  CA  TYR A   2     -13.846  55.576 -13.977  0.00  0.00    +0.153 C 
BRANCH  47  49
ATOM     48  C   LYS A   1     -13.751  56.570 -16.277  0.00  0.00    +0.238 C 
ATOM     49  N   TYR A   2     -14.210  56.573 -14.992  0.00  0.00    -0.297 N 
ATOM     50  H   TYR A   2     -14.862  57.333 -14.712  0.00  0.00    +0.150 HD
ATOM     51  O   LYS A   1     -13.004  55.707 -16.730  0.00  0.00    -0.274 OA
BRANCH  48  52
ATOM     52  CA  LYS A   1     -14.299  57.635 -17.217  0.00  0.00    +0.145 C 
BRANCH  52  53
ATOM     53  N   LYS A   1     -15.737  57.897 -17.045  0.00  0.00    -0.238 NA
ATOM     54  H   LYS A   1     -16.051  58.854 -16.786  0.00  0.00    +0.142 HD
ENDBRANCH  52  53
BRANCH  52  55
ATOM     55  CB  LYS A   1     -13.503  58.925 -17.198  0.00  0.00    +0.026 C 
BRANCH  55  56
ATOM     56  CG  LYS A   1     -13.475  59.520 -18.598  0.00  0.00    -0.000 C 
BRANCH  56  57
ATOM     57  CD  LYS A   1     -12.595  60.727 -18.737  0.00  0.00    -0.024 C 
BRANCH  57  58
ATOM     58  CE  LYS A   1     -12.237  61.031 -20.183  0.00  0.00    -0.086 C 
BRANCH  58  59
ATOM     59  NZ  LYS A   1     -13.409  61.035 -21.121  0.00  0.00    +0.380 N 
ATOM     60  HZ1 LYS A   1     -14.092  61.758 -20.817  0.00  0.00    -0.089 HD
ATOM     61  HZ2 LYS A   1     -13.864  60.100 -21.109  0.00  0.00    -0.089 HD
ATOM     62  HZ3 LYS A   1     -13.080  61.250 -22.084  0.00  0.00    -0.089 HD
ENDBRANCH  58  59
ENDBRANCH  57  58
ENDBRANCH  56  57
ENDBRANCH  55  56
ENDBRANCH  52  55
ENDBRANCH  48  52
ENDBRANCH  47  49
BRANCH  47  63
ATOM     63  CB  TYR A   2     -14.225  56.066 -12.560  0.00  0.00    +0.055 C 
BRANCH  63  64
ATOM     64  CG  TYR A   2     -13.049  56.754 -11.903  0.00  0.00    -0.020 A 
ATOM     65  CD2 TYR A   2     -12.180  56.050 -11.063  0.00  0.00    -0.001 A 
ATOM     66  CE2 TYR A   2     -11.070  56.670 -10.484  0.00  0.00    +0.036 A 
ATOM     67  CZ  TYR A   2     -10.772  57.981 -10.814  0.00  0.00    +0.134 A 
ATOM     68  CE1 TYR A   2     -11.595  58.681 -11.681  0.00  0.00    +0.036 A 
ATOM     69  CD1 TYR A   2     -12.715  58.061 -12.232  0.00  0.00    -0.001 A 
BRANCH  67  70
ATOM     70  OH  TYR A   2      -9.666  58.605 -10.291  0.00  0.00    -0.506 OA
ATOM     71  HH  TYR A   2      -9.616  59.531 -10.638  0.00  0.00    +0.292 HD
ENDBRANCH  67  70
ENDBRANCH  63  64
ENDBRANCH  47  63
ENDBRANCH  43  47
ENDBRANCH  42  45
BRANCH  42  72
ATOM     72  CB  HIS A   3     -17.512  52.846 -15.833  0.00  0.00    +0.076 C 
BRANCH  72  73
ATOM     73  CG  HIS A   3     -18.351  53.030 -14.604  0.00  0.00    +0.082 A 
ATOM     74  CD2 HIS A   3     -19.041  52.122 -13.876  0.00  0.00    +0.115 A 
ATOM     75  NE2 HIS A   3     -19.644  52.813 -12.843  0.00  0.00    -0.221 NA
ATOM     76  CE1 HIS A   3     -19.302  54.087 -12.977  0.00  0.00    +0.199 A 
ATOM     77  ND1 HIS A   3     -18.514  54.271 -14.032  0.00  0.00    -0.227 NA
ENDBRANCH  72  73
ENDBRANCH  42  72
ENDBRANCH  38  42
ENDBRANCH   1  40
BRANCH   1  78
ATOM     78  CB  LEU A   4     -13.063  53.693 -19.449  0.00  0.00    +0.029 C 
BRANCH  78  79
ATOM     79  CG  LEU A   4     -14.070  54.602 -20.164  0.00  0.00    +0.002 C 
ATOM     80  CD2 LEU A   4     -13.431  55.941 -20.533  0.00  0.00    +0.000 C 
ATOM     81  CD1 LEU A   4     -14.598  53.929 -21.434  0.00  0.00    +0.000 C 
ENDBRANCH  78  79
ENDBRANCH   1  78
TORSDOF 33
REMARK  Name = ../refined-set-2016/4a6l/4a6l_pocket.pdb
REMARK  225 active torsions:
REMARK  status: ('A' for Active; 'I' for Inactive)
REMARK    1  A    between atoms: _1  and  _5
REMARK    2  A    between atoms: _5  and  _6
REMARK    3  A    between atoms: _5  and  _8
REMARK    4  A    between atoms: _8  and  _9
REMARK    5  A    between atoms: _12  and  _14
REMARK    6  A    between atoms: _14  and  _15
REMARK    7  A    between atoms: _14  and  _17
REMARK    8  A    between atoms: _20  and  _22
REMARK    9  A    between atoms: _22  and  _23
REMARK   10  A    between atoms: _22  and  _25
REMARK   11  A    between atoms: _25  and  _26
REMARK   12  A    between atoms: _31  and  _33
REMARK   13  A    between atoms: _33  and  _34
REMARK   14  A    between atoms: _37  and  _39
REMARK   15  A    between atoms: _39  and  _40
REMARK   16  A    between atoms: _39  and  _42
REMARK   17  A    between atoms: _42  and  _43
REMARK   18  A    between atoms: _43  and  _44
REMARK   19  A    between atoms: _49  and  _51
REMARK   20  A    between atoms: _51  and  _52
REMARK   21  A    between atoms: _51  and  _54
REMARK   22  A    between atoms: _57  and  _59
REMARK   23  A    between atoms: _59  and  _60
REMARK   24  A    between atoms: _59  and  _62
REMARK   25  A    between atoms: _62  and  _63
REMARK   26  A    between atoms: _66  and  _68
REMARK   27  A    between atoms: _68  and  _69
REMARK   28  A    between atoms: _68  and  _71
REMARK   29  A    between atoms: _71  and  _72
REMARK   30  A    between atoms: _77  and  _79
REMARK   31  A    between atoms: _79  and  _80
REMARK   32  A    between atoms: _79  and  _82
REMARK   33  A    between atoms: _82  and  _83
REMARK   34  A    between atoms: _86  and  _88
REMARK   35  A    between atoms: _88  and  _89
REMARK   36  A    between atoms: _88  and  _91
REMARK   37  A    between atoms: _91  and  _92
REMARK   38  A    between atoms: _95  and  _97
REMARK   39  A    between atoms: _97  and  _98
REMARK   40  A    between atoms: _97  and  _100
REMARK   41  A    between atoms: _100  and  _101
REMARK   42  A    between atoms: _101  and  _102
REMARK   43  A    between atoms: _102  and  _103
REMARK   44  A    between atoms: _103  and  _104
REMARK   45  A    between atoms: _108  and  _110
REMARK   46  A    between atoms: _110  and  _111
REMARK   47  A    between atoms: _110  and  _113
REMARK   48  A    between atoms: _113  and  _114
REMARK   49  A    between atoms: _119  and  _120
REMARK   50  A    between atoms: _122  and  _124
REMARK   51  A    between atoms: _124  and  _125
REMARK   52  A    between atoms: _124  and  _127
REMARK   53  A    between atoms: _127  and  _128
REMARK   54  A    between atoms: _133  and  _135
REMARK   55  A    between atoms: _135  and  _136
REMARK   56  A    between atoms: _135  and  _138
REMARK   57  A    between atoms: _138  and  _139
REMARK   58  A    between atoms: _142  and  _144
REMARK   59  A    between atoms: _144  and  _145
REMARK   60  A    between atoms: _147  and  _149
REMARK   61  A    between atoms: _149  and  _150
REMARK   62  A    between atoms: _153  and  _155
REMARK   63  A    between atoms: _155  and  _156
REMARK   64  A    between atoms: _155  and  _158
REMARK   65  A    between atoms: _158  and  _159
REMARK   66  A    between atoms: _164  and  _165
REMARK   67  A    between atoms: _167  and  _169
REMARK   68  A    between atoms: _169  and  _170
REMARK   69  A    between atoms: _169  and  _172
REMARK   70  A    between atoms: _172  and  _173
REMARK   71  A    between atoms: _176  and  _178
REMARK   72  A    between atoms: _178  and  _179
REMARK   73  A    between atoms: _178  and  _181
REMARK   74  A    between atoms: _184  and  _186
REMARK   75  A    between atoms: _186  and  _187
REMARK   76  A    between atoms: _186  and  _189
REMARK   77  A    between atoms: _189  and  _190
REMARK   78  A    between atoms: _190  and  _191
REMARK   79  A    between atoms: _191  and  _192
REMARK   80  A    between atoms: _201  and  _203
REMARK   81  A    between atoms: _203  and  _204
REMARK   82  A    between atoms: _203  and  _206
REMARK   83  A    between atoms: _206  and  _207
REMARK   84  A    between atoms: _210  and  _212
REMARK   85  A    between atoms: _212  and  _213
REMARK   86  A    between atoms: _212  and  _215
REMARK   87  A    between atoms: _218  and  _220
REMARK   88  A    between atoms: _220  and  _221
REMARK   89  A    between atoms: _220  and  _223
REMARK   90  A    between atoms: _223  and  _224
REMARK   91  A    between atoms: _224  and  _225
REMARK   92  A    between atoms: _225  and  _226
REMARK   93  A    between atoms: _235  and  _237
REMARK   94  A    between atoms: _237  and  _238
REMARK   95  A    between atoms: _241  and  _243
REMARK   96  A    between atoms: _243  and  _244
REMARK   97  A    between atoms: _246  and  _248
REMARK   98  A    between atoms: _248  and  _249
REMARK   99  A    between atoms: _248  and  _251
REMARK  100  A    between atoms: _251  and  _252
REMARK  101  A    between atoms: _257  and  _259
REMARK  102  A    between atoms: _259  and  _260
REMARK  103  A    between atoms: _259  and  _262
REMARK  104  A    between atoms: _262  and  _263
REMARK  105  A    between atoms: _263  and  _264
REMARK  106  A    between atoms: _264  and  _265
REMARK  107  A    between atoms: _274  and  _276
REMARK  108  A    between atoms: _276  and  _277
REMARK  109  A    between atoms: _276  and  _279
REMARK  110  A    between atoms: _279  and  _280
REMARK  111  A    between atoms: _283  and  _285
REMARK  112  A    between atoms: _285  and  _286
REMARK  113  A    between atoms: _285  and  _288
REMARK  114  A    between atoms: _288  and  _289
REMARK  115  A    between atoms: _291  and  _293
REMARK  116  A    between atoms: _293  and  _294
REMARK  117  A    between atoms: _293  and  _296
REMARK  118  A    between atoms: _296  and  _297
REMARK  119  A    between atoms: _297  and  _408
REMARK  120  A    between atoms: _298  and  _300
REMARK  121  A    between atoms: _300  and  _301
REMARK  122  A    between atoms: _300  and  _303
REMARK  123  A    between atoms: _303  and  _304
REMARK  124  A    between atoms: _304  and  _305
REMARK  125  A    between atoms: _310  and  _312
REMARK  126  A    between atoms: _312  and  _313
REMARK  127  A    between atoms: _315  and  _317
REMARK  128  A    between atoms: _317  and  _318
REMARK  129  A    between atoms: _317  and  _320
REMARK  130  A    between atoms: _320  and  _321
REMARK  131  A    between atoms: _324  and  _326
REMARK  132  A    between atoms: _326  and  _327
REMARK  133  A    between atoms: _326  and  _329
REMARK  134  A    between atoms: _329  and  _330
REMARK  135  A    between atoms: _332  and  _334
REMARK  136  A    between atoms: _334  and  _335
REMARK  137  A    between atoms: _337  and  _339
REMARK  138  A    between atoms: _339  and  _340
REMARK  139  A    between atoms: _342  and  _344
REMARK  140  A    between atoms: _344  and  _345
REMARK  141  A    between atoms: _344  and  _347
REMARK  142  A    between atoms: _350  and  _352
REMARK  143  A    between atoms: _352  and  _353
REMARK  144  A    between atoms: _352  and  _355
REMARK  145  A    between atoms: _358  and  _360
REMARK  146  A    between atoms: _360  and  _361
REMARK  147  A    between atoms: _360  and  _363
REMARK  148  A    between atoms: _363  and  _364
REMARK  149  A    between atoms: _366  and  _368
REMARK  150  A    between atoms: _368  and  _369
REMARK  151  A    between atoms: _368  and  _371
REMARK  152  A    between atoms: _371  and  _372
REMARK  153  A    between atoms: _382  and  _384
REMARK  154  A    between atoms: _384  and  _385
REMARK  155  A    between atoms: _387  and  _389
REMARK  156  A    between atoms: _389  and  _390
REMARK  157  A    between atoms: _389  and  _392
REMARK  158  A    between atoms: _392  and  _393
REMARK  159  A    between atoms: _393  and  _394
REMARK  160  A    between atoms: _397  and  _399
REMARK  161  A    between atoms: _399  and  _400
REMARK  162  A    between atoms: _402  and  _404
REMARK  163  A    between atoms: _404  and  _405
REMARK  164  A    between atoms: _404  and  _407
REMARK  165  A    between atoms: _407  and  _408
REMARK  166  A    between atoms: _409  and  _411
REMARK  167  A    between atoms: _411  and  _412
REMARK  168  A    between atoms: _415  and  _417
REMARK  169  A    between atoms: _417  and  _418
REMARK  170  A    between atoms: _417  and  _420
REMARK  171  A    between atoms: _420  and  _421
REMARK  172  A    between atoms: _421  and  _422
REMARK  173  A    between atoms: _427  and  _429
REMARK  174  A    between atoms: _429  and  _430
REMARK  175  A    between atoms: _429  and  _432
REMARK  176  A    between atoms: _432  and  _433
REMARK  177  A    between atoms: _438  and  _440
REMARK  178  A    between atoms: _440  and  _441
REMARK  179  A    between atoms: _440  and  _443
REMARK  180  A    between atoms: _443  and  _444
REMARK  181  A    between atoms: _444  and  _445
REMARK  182  A    between atoms: _445  and  _446
REMARK  183  A    between atoms: _456  and  _457
REMARK  184  A    between atoms: _462  and  _464
REMARK  185  A    between atoms: _464  and  _465
REMARK  186  A    between atoms: _467  and  _469
REMARK  187  A    between atoms: _469  and  _470
REMARK  188  A    between atoms: _469  and  _472
REMARK  189  A    between atoms: _472  and  _473
REMARK  190  A    between atoms: _476  and  _478
REMARK  191  A    between atoms: _478  and  _479
REMARK  192  A    between atoms: _478  and  _481
REMARK  193  A    between atoms: _481  and  _482
REMARK  194  A    between atoms: _487  and  _488
REMARK  195  A    between atoms: _490  and  _492
REMARK  196  A    between atoms: _492  and  _493
REMARK  197  A    between atoms: _496  and  _497
REMARK  198  A    between atoms: _502  and  _504
REMARK  199  A    between atoms: _504  and  _505
REMARK  200  A    between atoms: _504  and  _507
REMARK  201  A    between atoms: _507  and  _508
REMARK  202  A    between atoms: _511  and  _513
REMARK  203  A    between atoms: _513  and  _514
REMARK  204  A    between atoms: _513  and  _516
REMARK  205  A    between atoms: _519  and  _521
REMARK  206  A    between atoms: _521  and  _522
REMARK  207  A    between atoms: _521  and  _524
REMARK  208  A    between atoms: _524  and  _525
REMARK  209  A    between atoms: _533  and  _534
REMARK  210  A    between atoms: _533  and  _536
REMARK  211  A    between atoms: _536  and  _537
REMARK  212  A    between atoms: _542  and  _543
REMARK  213  A    between atoms: _545  and  _547
REMARK  214  A    between atoms: _547  and  _548
REMARK  215  A    between atoms: _547  and  _550
REMARK  216  A    between atoms: _550  and  _551
REMARK  217  A    between atoms: _554  and  _556
REMARK  218  A    between atoms: _556  and  _557
REMARK  219  A    between atoms: _556  and  _559
REMARK  220  A    between atoms: _559  and  _560
REMARK  221  A    between atoms: _560  and  _561
REMARK  222  A    between atoms: _566  and  _568
REMARK  223  A    between atoms: _568  and  _569
REMARK  224  A    between atoms: _568  and  _571
REMARK  225  A    between atoms: _571  and  _572
REMARK                            x       y       z     vdW  Elec       q    Type
REMARK                         _______ _______ _______ _____ _____    ______ ____
ROOT
ATOM      1  CA  ILE A   3     -18.051  55.642  -8.363  0.00  0.00    +0.149 C 
ENDROOT
BRANCH   1   4
ATOM      2  C   ARG A   2     -20.488  55.331  -8.256  0.00  0.00    +0.241 C 
ATOM      3  O   ARG A   2     -20.457  54.978  -7.075  0.00  0.00    -0.273 OA
ATOM      4  N   ILE A   3     -19.395  55.635  -8.946  0.00  0.00    -0.297 N 
ATOM      5  H   ILE A   3     -19.498  55.881  -9.951  0.00  0.00    +0.150 HD
BRANCH   2   6
ATOM      6  CA  ARG A   2     -21.820  55.400  -9.022  0.00  0.00    +0.149 C 
BRANCH   6   8
ATOM      7  C   VAL A   1     -22.118  53.149  -9.937  0.00  0.00    +0.238 C 
ATOM      8  N   ARG A   2     -22.485  54.108  -9.086  0.00  0.00    -0.297 N 
ATOM      9  H   ARG A   2     -23.280  53.924  -8.441  0.00  0.00    +0.150 HD
ATOM     10  O   VAL A   1     -21.183  53.269 -10.729  0.00  0.00    -0.274 OA
BRANCH   7  11
ATOM     11  CA  VAL A   1     -22.935  51.859  -9.907  0.00  0.00    +0.145 C 
BRANCH  11  12
ATOM     12  CB  VAL A   1     -22.067  50.611  -9.561  0.00  0.00    +0.025 C 
ATOM     13  CG2 VAL A   1     -21.426  50.746  -8.172  0.00  0.00    +0.002 C 
ATOM     14  CG1 VAL A   1     -22.886  49.334  -9.661  0.00  0.00    +0.002 C 
ENDBRANCH  11  12
BRANCH  11  15
ATOM     15  N   VAL A   1     -23.616  51.731 -11.190  0.00  0.00    -0.238 NA
ATOM     16  H   VAL A   1     -23.099  51.282 -11.973  0.00  0.00    +0.142 HD
ENDBRANCH  11  15
ENDBRANCH   7  11
ENDBRANCH   6   8
BRANCH   6  17
ATOM     17  CB  ARG A   2     -22.763  56.481  -8.476  0.00  0.00    +0.033 C 
BRANCH  17  18
ATOM     18  CG  ARG A   2     -22.343  57.859  -8.924  0.00  0.00    +0.045 C 
BRANCH  18  19
ATOM     19  CD  ARG A   2     -23.290  58.932  -8.474  0.00  0.00    +0.174 C 
BRANCH  19  20
ATOM     20  NE  ARG A   2     -24.337  59.056  -9.482  0.00  0.00    -0.265 N 
ATOM     21  CZ  ARG A   2     -25.630  59.173  -9.214  0.00  0.00    +0.342 C 
ATOM     22  NH2 ARG A   2     -26.055  59.186  -7.958  0.00  0.00    -0.292 N 
ATOM     23 HH21 ARG A   2     -25.373  59.104  -7.177  0.00  0.00    +0.255 HD
ATOM     24 HH22 ARG A   2     -27.071  59.278  -7.754  0.00  0.00    +0.255 HD
ATOM     25  NH1 ARG A   2     -26.513  59.262 -10.201  0.00  0.00    -0.292 N 
ATOM     26 HH11 ARG A   2     -27.526  59.354  -9.986  0.00  0.00    +0.255 HD
ATOM     27 HH12 ARG A   2     -26.192  59.240 -11.190  0.00  0.00    +0.255 HD
ATOM     28  HE  ARG A   2     -24.049  59.052 -10.481  0.00  0.00    +0.259 HD
ENDBRANCH  19  20
ENDBRANCH  18  19
ENDBRANCH  17  18
ENDBRANCH   6  17
ENDBRANCH   2   6
ENDBRANCH   1   4
BRANCH   1  29
ATOM     29  C   ILE A   3     -17.769  57.063  -7.852  0.00  0.00    +0.241 C 
ATOM     30  O   ILE A   3     -17.416  57.244  -6.682  0.00  0.00    -0.273 OA
ATOM     31  N   VAL A   4     -17.931  58.066  -8.732  0.00  0.00    -0.297 N 
ATOM     32  H   VAL A   4     -18.195  57.829  -9.710  0.00  0.00    +0.150 HD
BRANCH  31  33
ATOM     33  CA  VAL A   4     -17.754  59.475  -8.381  0.00  0.00    +0.149 C 
BRANCH  33  34
ATOM     34  C   VAL A   4     -19.110  59.943  -7.813  0.00  0.00    +0.241 C 
ATOM     35  N   ARG A   5     -19.183  60.169  -6.485  0.00  0.00    -0.298 N 
ATOM     36  H   ARG A   5     -18.318  60.061  -5.918  0.00  0.00    +0.150 HD
ATOM     37  O   VAL A   4     -20.074  60.073  -8.572  0.00  0.00    -0.273 OA
BRANCH  35  38
ATOM     38  CA  ARG A   5     -20.418  60.559  -5.802  0.00  0.00    +0.137 C 
BRANCH  38  39
ATOM     39  C   ARG A   5     -20.659  62.058  -5.909  0.00  0.00    +0.227 C 
ATOM     40  O   ARG A   5     -19.771  62.813  -6.342  0.00  0.00    -0.286 OA
ENDBRANCH  38  39
BRANCH  38  41
ATOM     41  CB  ARG A   5     -20.418  60.084  -4.328  0.00  0.00    +0.031 C 
BRANCH  41  42
ATOM     42  CG  ARG A   5     -19.855  58.671  -4.064  0.00  0.00    +0.045 C 
BRANCH  42  43
ATOM     43  CD  ARG A   5     -20.859  57.564  -4.257  0.00  0.00    +0.174 C 
BRANCH  43  44
ATOM     44  NE  ARG A   5     -20.352  56.247  -3.844  0.00  0.00    -0.265 N 
ATOM     45  CZ  ARG A   5     -20.580  55.677  -2.657  0.00  0.00    +0.342 C 
ATOM     46  NH2 ARG A   5     -21.288  56.311  -1.731  0.00  0.00    -0.292 N 
ATOM     47 HH21 ARG A   5     -21.461  55.861  -0.810  0.00  0.00    +0.255 HD
ATOM     48 HH22 ARG A   5     -21.670  57.258  -1.926  0.00  0.00    +0.255 HD
ATOM     49  NH1 ARG A   5     -20.101  54.468  -2.391  0.00  0.00    -0.292 N 
ATOM     50 HH11 ARG A   5     -20.282  54.029  -1.466  0.00  0.00    +0.255 HD
ATOM     51 HH12 ARG A   5     -19.545  53.960  -3.108  0.00  0.00    +0.255 HD
ATOM     52  HE  ARG A   5     -19.772  55.719  -4.527  0.00  0.00    +0.259 HD
ENDBRANCH  43  44
ENDBRANCH  42  43
ENDBRANCH  41  42
ENDBRANCH  38  41
ENDBRANCH  35  38
ENDBRANCH  33  34
BRANCH  33  53
ATOM     53  CB  VAL A   4     -17.283  60.327  -9.595  0.00  0.00    +0.027 C 
ATOM     54  CG2 VAL A   4     -17.200  61.808  -9.230  0.00  0.00    +0.002 C 
ATOM     55  CG1 VAL A   4     -15.953  59.816 -10.158  0.00  0.00    +0.002 C 
ENDBRANCH  33  53
ENDBRANCH  31  33
ENDBRANCH   1  29
BRANCH   1  56
ATOM     56  CB  ILE A   3     -16.996  55.106  -9.362  0.00  0.00    +0.027 C 
ATOM     57  CG2 ILE A   3     -15.573  55.255  -8.789  0.00  0.00    +0.002 C 
BRANCH  56  58
ATOM     58  CG1 ILE A   3     -17.287  53.642  -9.752  0.00  0.00    +0.002 C 
ATOM     59  CD1 ILE A   3     -16.518  53.119 -11.061  0.00  0.00    +0.000 C 
ENDBRANCH  56  58
ENDBRANCH   1  56
TORSDOF 22
REMARK  Name = ../refined-set-2016/4a6l/4a6l_pocket.pdb
REMARK  225 active torsions:
REMARK  status: ('A' for Active; 'I' for Inactive)
REMARK    1  A    between atoms: _1  and  _5
REMARK    2  A    between atoms: _5  and  _6
REMARK    3  A    between atoms: _5  and  _8
REMARK    4  A    between atoms: _8  and  _9
REMARK    5  A    between atoms: _12  and  _14
REMARK    6  A    between atoms: _14  and  _15
REMARK    7  A    between atoms: _14  and  _17
REMARK    8  A    between atoms: _20  and  _22
REMARK    9  A    between atoms: _22  and  _23
REMARK   10  A    between atoms: _22  and  _25
REMARK   11  A    between atoms: _25  and  _26
REMARK   12  A    between atoms: _31  and  _33
REMARK   13  A    between atoms: _33  and  _34
REMARK   14  A    between atoms: _37  and  _39
REMARK   15  A    between atoms: _39  and  _40
REMARK   16  A    between atoms: _39  and  _42
REMARK   17  A    between atoms: _42  and  _43
REMARK   18  A    between atoms: _43  and  _44
REMARK   19  A    between atoms: _49  and  _51
REMARK   20  A    between atoms: _51  and  _52
REMARK   21  A    between atoms: _51  and  _54
REMARK   22  A    between atoms: _57  and  _59
REMARK   23  A    between atoms: _59  and  _60
REMARK   24  A    between atoms: _59  and  _62
REMARK   25  A    between atoms: _62  and  _63
REMARK   26  A    between atoms: _66  and  _68
REMARK   27  A    between atoms: _68  and  _69
REMARK   28  A    between atoms: _68  and  _71
REMARK   29  A    between atoms: _71  and  _72
REMARK   30  A    between atoms: _77  and  _79
REMARK   31  A    between atoms: _79  and  _80
REMARK   32  A    between atoms: _79  and  _82
REMARK   33  A    between atoms: _82  and  _83
REMARK   34  A    between atoms: _86  and  _88
REMARK   35  A    between atoms: _88  and  _89
REMARK   36  A    between atoms: _88  and  _91
REMARK   37  A    between atoms: _91  and  _92
REMARK   38  A    between atoms: _95  and  _97
REMARK   39  A    between atoms: _97  and  _98
REMARK   40  A    between atoms: _97  and  _100
REMARK   41  A    between atoms: _100  and  _101
REMARK   42  A    between atoms: _101  and  _102
REMARK   43  A    between atoms: _102  and  _103
REMARK   44  A    between atoms: _103  and  _104
REMARK   45  A    between atoms: _108  and  _110
REMARK   46  A    between atoms: _110  and  _111
REMARK   47  A    between atoms: _110  and  _113
REMARK   48  A    between atoms: _113  and  _114
REMARK   49  A    between atoms: _119  and  _120
REMARK   50  A    between atoms: _122  and  _124
REMARK   51  A    between atoms: _124  and  _125
REMARK   52  A    between atoms: _124  and  _127
REMARK   53  A    between atoms: _127  and  _128
REMARK   54  A    between atoms: _133  and  _135
REMARK   55  A    between atoms: _135  and  _136
REMARK   56  A    between atoms: _135  and  _138
REMARK   57  A    between atoms: _138  and  _139
REMARK   58  A    between atoms: _142  and  _144
REMARK   59  A    between atoms: _144  and  _145
REMARK   60  A    between atoms: _147  and  _149
REMARK   61  A    between atoms: _149  and  _150
REMARK   62  A    between atoms: _153  and  _155
REMARK   63  A    between atoms: _155  and  _156
REMARK   64  A    between atoms: _155  and  _158
REMARK   65  A    between atoms: _158  and  _159
REMARK   66  A    between atoms: _164  and  _165
REMARK   67  A    between atoms: _167  and  _169
REMARK   68  A    between atoms: _169  and  _170
REMARK   69  A    between atoms: _169  and  _172
REMARK   70  A    between atoms: _172  and  _173
REMARK   71  A    between atoms: _176  and  _178
REMARK   72  A    between atoms: _178  and  _179
REMARK   73  A    between atoms: _178  and  _181
REMARK   74  A    between atoms: _184  and  _186
REMARK   75  A    between atoms: _186  and  _187
REMARK   76  A    between atoms: _186  and  _189
REMARK   77  A    between atoms: _189  and  _190
REMARK   78  A    between atoms: _190  and  _191
REMARK   79  A    between atoms: _191  and  _192
REMARK   80  A    between atoms: _201  and  _203
REMARK   81  A    between atoms: _203  and  _204
REMARK   82  A    between atoms: _203  and  _206
REMARK   83  A    between atoms: _206  and  _207
REMARK   84  A    between atoms: _210  and  _212
REMARK   85  A    between atoms: _212  and  _213
REMARK   86  A    between atoms: _212  and  _215
REMARK   87  A    between atoms: _218  and  _220
REMARK   88  A    between atoms: _220  and  _221
REMARK   89  A    between atoms: _220  and  _223
REMARK   90  A    between atoms: _223  and  _224
REMARK   91  A    between atoms: _224  and  _225
REMARK   92  A    between atoms: _225  and  _226
REMARK   93  A    between atoms: _235  and  _237
REMARK   94  A    between atoms: _237  and  _238
REMARK   95  A    between atoms: _241  and  _243
REMARK   96  A    between atoms: _243  and  _244
REMARK   97  A    between atoms: _246  and  _248
REMARK   98  A    between atoms: _248  and  _249
REMARK   99  A    between atoms: _248  and  _251
REMARK  100  A    between atoms: _251  and  _252
REMARK  101  A    between atoms: _257  and  _259
REMARK  102  A    between atoms: _259  and  _260
REMARK  103  A    between atoms: _259  and  _262
REMARK  104  A    between atoms: _262  and  _263
REMARK  105  A    between atoms: _263  and  _264
REMARK  106  A    between atoms: _264  and  _265
REMARK  107  A    between atoms: _274  and  _276
REMARK  108  A    between atoms: _276  and  _277
REMARK  109  A    between atoms: _276  and  _279
REMARK  110  A    between atoms: _279  and  _280
REMARK  111  A    between atoms: _283  and  _285
REMARK  112  A    between atoms: _285  and  _286
REMARK  113  A    between atoms: _285  and  _288
REMARK  114  A    between atoms: _288  and  _289
REMARK  115  A    between atoms: _291  and  _293
REMARK  116  A    between atoms: _293  and  _294
REMARK  117  A    between atoms: _293  and  _296
REMARK  118  A    between atoms: _296  and  _297
REMARK  119  A    between atoms: _297  and  _408
REMARK  120  A    between atoms: _298  and  _300
REMARK  121  A    between atoms: _300  and  _301
REMARK  122  A    between atoms: _300  and  _303
REMARK  123  A    between atoms: _303  and  _304
REMARK  124  A    between atoms: _304  and  _305
REMARK  125  A    between atoms: _310  and  _312
REMARK  126  A    between atoms: _312  and  _313
REMARK  127  A    between atoms: _315  and  _317
REMARK  128  A    between atoms: _317  and  _318
REMARK  129  A    between atoms: _317  and  _320
REMARK  130  A    between atoms: _320  and  _321
REMARK  131  A    between atoms: _324  and  _326
REMARK  132  A    between atoms: _326  and  _327
REMARK  133  A    between atoms: _326  and  _329
REMARK  134  A    between atoms: _329  and  _330
REMARK  135  A    between atoms: _332  and  _334
REMARK  136  A    between atoms: _334  and  _335
REMARK  137  A    between atoms: _337  and  _339
REMARK  138  A    between atoms: _339  and  _340
REMARK  139  A    between atoms: _342  and  _344
REMARK  140  A    between atoms: _344  and  _345
REMARK  141  A    between atoms: _344  and  _347
REMARK  142  A    between atoms: _350  and  _352
REMARK  143  A    between atoms: _352  and  _353
REMARK  144  A    between atoms: _352  and  _355
REMARK  145  A    between atoms: _358  and  _360
REMARK  146  A    between atoms: _360  and  _361
REMARK  147  A    between atoms: _360  and  _363
REMARK  148  A    between atoms: _363  and  _364
REMARK  149  A    between atoms: _366  and  _368
REMARK  150  A    between atoms: _368  and  _369
REMARK  151  A    between atoms: _368  and  _371
REMARK  152  A    between atoms: _371  and  _372
REMARK  153  A    between atoms: _382  and  _384
REMARK  154  A    between atoms: _384  and  _385
REMARK  155  A    between atoms: _387  and  _389
REMARK  156  A    between atoms: _389  and  _390
REMARK  157  A    between atoms: _389  and  _392
REMARK  158  A    between atoms: _392  and  _393
REMARK  159  A    between atoms: _393  and  _394
REMARK  160  A    between atoms: _397  and  _399
REMARK  161  A    between atoms: _399  and  _400
REMARK  162  A    between atoms: _402  and  _404
REMARK  163  A    between atoms: _404  and  _405
REMARK  164  A    between atoms: _404  and  _407
REMARK  165  A    between atoms: _407  and  _408
REMARK  166  A    between atoms: _409  and  _411
REMARK  167  A    between atoms: _411  and  _412
REMARK  168  A    between atoms: _415  and  _417
REMARK  169  A    between atoms: _417  and  _418
REMARK  170  A    between atoms: _417  and  _420
REMARK  171  A    between atoms: _420  and  _421
REMARK  172  A    between atoms: _421  and  _422
REMARK  173  A    between atoms: _427  and  _429
REMARK  174  A    between atoms: _429  and  _430
REMARK  175  A    between atoms: _429  and  _432
REMARK  176  A    between atoms: _432  and  _433
REMARK  177  A    between atoms: _438  and  _440
REMARK  178  A    between atoms: _440  and  _441
REMARK  179  A    between atoms: _440  and  _443
REMARK  180  A    between atoms: _443  and  _444
REMARK  181  A    between atoms: _444  and  _445
REMARK  182  A    between atoms: _445  and  _446
REMARK  183  A    between atoms: _456  and  _457
REMARK  184  A    between atoms: _462  and  _464
REMARK  185  A    between atoms: _464  and  _465
REMARK  186  A    between atoms: _467  and  _469
REMARK  187  A    between atoms: _469  and  _470
REMARK  188  A    between atoms: _469  and  _472
REMARK  189  A    between atoms: _472  and  _473
REMARK  190  A    between atoms: _476  and  _478
REMARK  191  A    between atoms: _478  and  _479
REMARK  192  A    between atoms: _478  and  _481
REMARK  193  A    between atoms: _481  and  _482
REMARK  194  A    between atoms: _487  and  _488
REMARK  195  A    between atoms: _490  and  _492
REMARK  196  A    between atoms: _492  and  _493
REMARK  197  A    between atoms: _496  and  _497
REMARK  198  A    between atoms: _502  and  _504
REMARK  199  A    between atoms: _504  and  _505
REMARK  200  A    between atoms: _504  and  _507
REMARK  201  A    between atoms: _507  and  _508
REMARK  202  A    between atoms: _511  and  _513
REMARK  203  A    between atoms: _513  and  _514
REMARK  204  A    between atoms: _513  and  _516
REMARK  205  A    between atoms: _519  and  _521
REMARK  206  A    between atoms: _521  and  _522
REMARK  207  A    between atoms: _521  and  _524
REMARK  208  A    between atoms: _524  and  _525
REMARK  209  A    between atoms: _533  and  _534
REMARK  210  A    between atoms: _533  and  _536
REMARK  211  A    between atoms: _536  and  _537
REMARK  212  A    between atoms: _542  and  _543
REMARK  213  A    between atoms: _545  and  _547
REMARK  214  A    between atoms: _547  and  _548
REMARK  215  A    between atoms: _547  and  _550
REMARK  216  A    between atoms: _550  and  _551
REMARK  217  A    between atoms: _554  and  _556
REMARK  218  A    between atoms: _556  and  _557
REMARK  219  A    between atoms: _556  and  _559
REMARK  220  A    between atoms: _559  and  _560
REMARK  221  A    between atoms: _560  and  _561
REMARK  222  A    between atoms: _566  and  _568
REMARK  223  A    between atoms: _568  and  _569
REMARK  224  A    between atoms: _568  and  _571
REMARK  225  A    between atoms: _571  and  _572
REMARK                            x       y       z     vdW  Elec       q    Type
REMARK                         _______ _______ _______ _____ _____    ______ ____
ROOT
ATOM      1  C   GLY A   2      -7.089  65.978 -14.993  0.00  0.00    +0.243 C 
ATOM      2  O   GLY A   2      -8.179  65.606 -15.432  0.00  0.00    -0.273 OA
ATOM      3  N   ASN A   3      -5.925  65.631 -15.548  0.00  0.00    -0.298 N 
ATOM      4  H   ASN A   3      -5.054  66.007 -15.123  0.00  0.00    +0.150 HD
ENDROOT
BRANCH   1   5
ATOM      5  CA  GLY A   2      -7.009  66.857 -13.770  0.00  0.00    +0.176 C 
BRANCH   5   8
ATOM      6  C   ALA A   1      -8.871  66.944 -12.158  0.00  0.00    +0.238 C 
ATOM      7  O   ALA A   1      -8.446  66.023 -11.456  0.00  0.00    -0.274 OA
ATOM      8  N   GLY A   2      -8.276  67.372 -13.276  0.00  0.00    -0.296 N 
ATOM      9  H   GLY A   2      -8.748  68.118 -13.826  0.00  0.00    +0.150 HD
BRANCH   6  10
ATOM     10  CA  ALA A   1     -10.156  67.669 -11.759  0.00  0.00    +0.145 C 
ATOM     11  CB  ALA A   1      -9.843  68.837 -10.816  0.00  0.00    +0.028 C 
BRANCH  10  12
ATOM     12  N   ALA A   1     -11.108  66.742 -11.127  0.00  0.00    -0.238 NA
ATOM     13  H   ALA A   1     -10.723  65.904 -10.646  0.00  0.00    +0.142 HD
ENDBRANCH  10  12
ENDBRANCH   6  10
ENDBRANCH   5   8
ENDBRANCH   1   5
BRANCH   3  14
ATOM     14  CA  ASN A   3      -5.793  64.754 -16.719  0.00  0.00    +0.146 C 
BRANCH  14  15
ATOM     15  C   ASN A   3      -4.460  63.976 -16.614  0.00  0.00    +0.227 C 
ATOM     16  O   ASN A   3      -3.882  63.909 -15.531  0.00  0.00    -0.286 OA
ENDBRANCH  14  15
BRANCH  14  17
ATOM     17  CB  ASN A   3      -5.900  65.568 -18.038  0.00  0.00    +0.112 C 
BRANCH  17  18
ATOM     18  CG  ASN A   3      -4.876  66.683 -18.200  0.00  0.00    +0.222 C 
ATOM     19  OD1 ASN A   3      -3.745  66.644 -17.677  0.00  0.00    -0.275 OA
ATOM     20  ND2 ASN A   3      -5.237  67.701 -18.964  0.00  0.00    -0.329 N 
ATOM     21 HD21 ASN A   3      -4.574  68.483 -19.135  0.00  0.00    +0.145 HD
ATOM     22 HD22 ASN A   3      -6.184  67.719 -19.393  0.00  0.00    +0.145 HD
ENDBRANCH  17  18
ENDBRANCH  14  17
ENDBRANCH   3  14
TORSDOF 8
REMARK  Name = ../refined-set-2016/4a6l/4a6l_pocket.pdb
REMARK  225 active torsions:
REMARK  status: ('A' for Active; 'I' for Inactive)
REMARK    1  A    between atoms: _1  and  _5
REMARK    2  A    between atoms: _5  and  _6
REMARK    3  A    between atoms: _5  and  _8
REMARK    4  A    between atoms: _8  and  _9
REMARK    5  A    between atoms: _12  and  _14
REMARK    6  A    between atoms: _14  and  _15
REMARK    7  A    between atoms: _14  and  _17
REMARK    8  A    between atoms: _20  and  _22
REMARK    9  A    between atoms: _22  and  _23
REMARK   10  A    between atoms: _22  and  _25
REMARK   11  A    between atoms: _25  and  _26
REMARK   12  A    between atoms: _31  and  _33
REMARK   13  A    between atoms: _33  and  _34
REMARK   14  A    between atoms: _37  and  _39
REMARK   15  A    between atoms: _39  and  _40
REMARK   16  A    between atoms: _39  and  _42
REMARK   17  A    between atoms: _42  and  _43
REMARK   18  A    between atoms: _43  and  _44
REMARK   19  A    between atoms: _49  and  _51
REMARK   20  A    between atoms: _51  and  _52
REMARK   21  A    between atoms: _51  and  _54
REMARK   22  A    between atoms: _57  and  _59
REMARK   23  A    between atoms: _59  and  _60
REMARK   24  A    between atoms: _59  and  _62
REMARK   25  A    between atoms: _62  and  _63
REMARK   26  A    between atoms: _66  and  _68
REMARK   27  A    between atoms: _68  and  _69
REMARK   28  A    between atoms: _68  and  _71
REMARK   29  A    between atoms: _71  and  _72
REMARK   30  A    between atoms: _77  and  _79
REMARK   31  A    between atoms: _79  and  _80
REMARK   32  A    between atoms: _79  and  _82
REMARK   33  A    between atoms: _82  and  _83
REMARK   34  A    between atoms: _86  and  _88
REMARK   35  A    between atoms: _88  and  _89
REMARK   36  A    between atoms: _88  and  _91
REMARK   37  A    between atoms: _91  and  _92
REMARK   38  A    between atoms: _95  and  _97
REMARK   39  A    between atoms: _97  and  _98
REMARK   40  A    between atoms: _97  and  _100
REMARK   41  A    between atoms: _100  and  _101
REMARK   42  A    between atoms: _101  and  _102
REMARK   43  A    between atoms: _102  and  _103
REMARK   44  A    between atoms: _103  and  _104
REMARK   45  A    between atoms: _108  and  _110
REMARK   46  A    between atoms: _110  and  _111
REMARK   47  A    between atoms: _110  and  _113
REMARK   48  A    between atoms: _113  and  _114
REMARK   49  A    between atoms: _119  and  _120
REMARK   50  A    between atoms: _122  and  _124
REMARK   51  A    between atoms: _124  and  _125
REMARK   52  A    between atoms: _124  and  _127
REMARK   53  A    between atoms: _127  and  _128
REMARK   54  A    between atoms: _133  and  _135
REMARK   55  A    between atoms: _135  and  _136
REMARK   56  A    between atoms: _135  and  _138
REMARK   57  A    between atoms: _138  and  _139
REMARK   58  A    between atoms: _142  and  _144
REMARK   59  A    between atoms: _144  and  _145
REMARK   60  A    between atoms: _147  and  _149
REMARK   61  A    between atoms: _149  and  _150
REMARK   62  A    between atoms: _153  and  _155
REMARK   63  A    between atoms: _155  and  _156
REMARK   64  A    between atoms: _155  and  _158
REMARK   65  A    between atoms: _158  and  _159
REMARK   66  A    between atoms: _164  and  _165
REMARK   67  A    between atoms: _167  and  _169
REMARK   68  A    between atoms: _169  and  _170
REMARK   69  A    between atoms: _169  and  _172
REMARK   70  A    between atoms: _172  and  _173
REMARK   71  A    between atoms: _176  and  _178
REMARK   72  A    between atoms: _178  and  _179
REMARK   73  A    between atoms: _178  and  _181
REMARK   74  A    between atoms: _184  and  _186
REMARK   75  A    between atoms: _186  and  _187
REMARK   76  A    between atoms: _186  and  _189
REMARK   77  A    between atoms: _189  and  _190
REMARK   78  A    between atoms: _190  and  _191
REMARK   79  A    between atoms: _191  and  _192
REMARK   80  A    between atoms: _201  and  _203
REMARK   81  A    between atoms: _203  and  _204
REMARK   82  A    between atoms: _203  and  _206
REMARK   83  A    between atoms: _206  and  _207
REMARK   84  A    between atoms: _210  and  _212
REMARK   85  A    between atoms: _212  and  _213
REMARK   86  A    between atoms: _212  and  _215
REMARK   87  A    between atoms: _218  and  _220
REMARK   88  A    between atoms: _220  and  _221
REMARK   89  A    between atoms: _220  and  _223
REMARK   90  A    between atoms: _223  and  _224
REMARK   91  A    between atoms: _224  and  _225
REMARK   92  A    between atoms: _225  and  _226
REMARK   93  A    between atoms: _235  and  _237
REMARK   94  A    between atoms: _237  and  _238
REMARK   95  A    between atoms: _241  and  _243
REMARK   96  A    between atoms: _243  and  _244
REMARK   97  A    between atoms: _246  and  _248
REMARK   98  A    between atoms: _248  and  _249
REMARK   99  A    between atoms: _248  and  _251
REMARK  100  A    between atoms: _251  and  _252
REMARK  101  A    between atoms: _257  and  _259
REMARK  102  A    between atoms: _259  and  _260
REMARK  103  A    between atoms: _259  and  _262
REMARK  104  A    between atoms: _262  and  _263
REMARK  105  A    between atoms: _263  and  _264
REMARK  106  A    between atoms: _264  and  _265
REMARK  107  A    between atoms: _274  and  _276
REMARK  108  A    between atoms: _276  and  _277
REMARK  109  A    between atoms: _276  and  _279
REMARK  110  A    between atoms: _279  and  _280
REMARK  111  A    between atoms: _283  and  _285
REMARK  112  A    between atoms: _285  and  _286
REMARK  113  A    between atoms: _285  and  _288
REMARK  114  A    between atoms: _288  and  _289
REMARK  115  A    between atoms: _291  and  _293
REMARK  116  A    between atoms: _293  and  _294
REMARK  117  A    between atoms: _293  and  _296
REMARK  118  A    between atoms: _296  and  _297
REMARK  119  A    between atoms: _297  and  _408
REMARK  120  A    between atoms: _298  and  _300
REMARK  121  A    between atoms: _300  and  _301
REMARK  122  A    between atoms: _300  and  _303
REMARK  123  A    between atoms: _303  and  _304
REMARK  124  A    between atoms: _304  and  _305
REMARK  125  A    between atoms: _310  and  _312
REMARK  126  A    between atoms: _312  and  _313
REMARK  127  A    between atoms: _315  and  _317
REMARK  128  A    between atoms: _317  and  _318
REMARK  129  A    between atoms: _317  and  _320
REMARK  130  A    between atoms: _320  and  _321
REMARK  131  A    between atoms: _324  and  _326
REMARK  132  A    between atoms: _326  and  _327
REMARK  133  A    between atoms: _326  and  _329
REMARK  134  A    between atoms: _329  and  _330
REMARK  135  A    between atoms: _332  and  _334
REMARK  136  A    between atoms: _334  and  _335
REMARK  137  A    between atoms: _337  and  _339
REMARK  138  A    between atoms: _339  and  _340
REMARK  139  A    between atoms: _342  and  _344
REMARK  140  A    between atoms: _344  and  _345
REMARK  141  A    between atoms: _344  and  _347
REMARK  142  A    between atoms: _350  and  _352
REMARK  143  A    between atoms: _352  and  _353
REMARK  144  A    between atoms: _352  and  _355
REMARK  145  A    between atoms: _358  and  _360
REMARK  146  A    between atoms: _360  and  _361
REMARK  147  A    between atoms: _360  and  _363
REMARK  148  A    between atoms: _363  and  _364
REMARK  149  A    between atoms: _366  and  _368
REMARK  150  A    between atoms: _368  and  _369
REMARK  151  A    between atoms: _368  and  _371
REMARK  152  A    between atoms: _371  and  _372
REMARK  153  A    between atoms: _382  and  _384
REMARK  154  A    between atoms: _384  and  _385
REMARK  155  A    between atoms: _387  and  _389
REMARK  156  A    between atoms: _389  and  _390
REMARK  157  A    between atoms: _389  and  _392
REMARK  158  A    between atoms: _392  and  _393
REMARK  159  A    between atoms: _393  and  _394
REMARK  160  A    between atoms: _397  and  _399
REMARK  161  A    between atoms: _399  and  _400
REMARK  162  A    between atoms: _402  and  _404
REMARK  163  A    between atoms: _404  and  _405
REMARK  164  A    between atoms: _404  and  _407
REMARK  165  A    between atoms: _407  and  _408
REMARK  166  A    between atoms: _409  and  _411
REMARK  167  A    between atoms: _411  and  _412
REMARK  168  A    between atoms: _415  and  _417
REMARK  169  A    between atoms: _417  and  _418
REMARK  170  A    between atoms: _417  and  _420
REMARK  171  A    between atoms: _420  and  _421
REMARK  172  A    between atoms: _421  and  _422
REMARK  173  A    between atoms: _427  and  _429
REMARK  174  A    between atoms: _429  and  _430
REMARK  175  A    between atoms: _429  and  _432
REMARK  176  A    between atoms: _432  and  _433
REMARK  177  A    between atoms: _438  and  _440
REMARK  178  A    between atoms: _440  and  _441
REMARK  179  A    between atoms: _440  and  _443
REMARK  180  A    between atoms: _443  and  _444
REMARK  181  A    between atoms: _444  and  _445
REMARK  182  A    between atoms: _445  and  _446
REMARK  183  A    between atoms: _456  and  _457
REMARK  184  A    between atoms: _462  and  _464
REMARK  185  A    between atoms: _464  and  _465
REMARK  186  A    between atoms: _467  and  _469
REMARK  187  A    between atoms: _469  and  _470
REMARK  188  A    between atoms: _469  and  _472
REMARK  189  A    between atoms: _472  and  _473
REMARK  190  A    between atoms: _476  and  _478
REMARK  191  A    between atoms: _478  and  _479
REMARK  192  A    between atoms: _478  and  _481
REMARK  193  A    between atoms: _481  and  _482
REMARK  194  A    between atoms: _487  and  _488
REMARK  195  A    between atoms: _490  and  _492
REMARK  196  A    between atoms: _492  and  _493
REMARK  197  A    between atoms: _496  and  _497
REMARK  198  A    between atoms: _502  and  _504
REMARK  199  A    between atoms: _504  and  _505
REMARK  200  A    between atoms: _504  and  _507
REMARK  201  A    between atoms: _507  and  _508
REMARK  202  A    between atoms: _511  and  _513
REMARK  203  A    between atoms: _513  and  _514
REMARK  204  A    between atoms: _513  and  _516
REMARK  205  A    between atoms: _519  and  _521
REMARK  206  A    between atoms: _521  and  _522
REMARK  207  A    between atoms: _521  and  _524
REMARK  208  A    between atoms: _524  and  _525
REMARK  209  A    between atoms: _533  and  _534
REMARK  210  A    between atoms: _533  and  _536
REMARK  211  A    between atoms: _536  and  _537
REMARK  212  A    between atoms: _542  and  _543
REMARK  213  A    between atoms: _545  and  _547
REMARK  214  A    between atoms: _547  and  _548
REMARK  215  A    between atoms: _547  and  _550
REMARK  216  A    between atoms: _550  and  _551
REMARK  217  A    between atoms: _554  and  _556
REMARK  218  A    between atoms: _556  and  _557
REMARK  219  A    between atoms: _556  and  _559
REMARK  220  A    between atoms: _559  and  _560
REMARK  221  A    between atoms: _560  and  _561
REMARK  222  A    between atoms: _566  and  _568
REMARK  223  A    between atoms: _568  and  _569
REMARK  224  A    between atoms: _568  and  _571
REMARK  225  A    between atoms: _571  and  _572
REMARK                            x       y       z     vdW  Elec       q    Type
REMARK                         _______ _______ _______ _____ _____    ______ ____
ROOT
ATOM      1  SG  TRP A   4       1.035  60.949  -7.071  0.00  0.00    -0.080 S 
ENDROOT
BRANCH   1   2
ATOM      2  CB  TRP A   4       0.632  62.701  -6.749  0.00  0.00    +0.098 C 
BRANCH   2   3
ATOM      3  CA  TRP A   4      -0.663  62.915  -5.960  0.00  0.00    +0.160 C 
BRANCH   3   5
ATOM      4  C   SER A   3      -2.019  64.511  -7.194  0.00  0.00    +0.243 C 
ATOM      5  N   TRP A   4      -1.205  64.253  -6.179  0.00  0.00    -0.296 N 
ATOM      6  H   TRP A   4      -0.947  65.020  -5.525  0.00  0.00    +0.150 HD
ATOM      7  O   SER A   3      -2.274  63.661  -8.055  0.00  0.00    -0.273 OA
BRANCH   4   8
ATOM      8  CA  SER A   3      -2.537  65.951  -7.351  0.00  0.00    +0.178 C 
BRANCH   8  10
ATOM      9  C   VAL A   2      -2.222  66.406  -9.770  0.00  0.00    +0.241 C 
ATOM     10  N   SER A   3      -2.969  66.017  -8.735  0.00  0.00    -0.295 N 
ATOM     11  H   SER A   3      -3.949  65.736  -8.938  0.00  0.00    +0.150 HD
ATOM     12  O   VAL A   2      -1.097  66.912  -9.650  0.00  0.00    -0.273 OA
BRANCH   9  13
ATOM     13  CA  VAL A   2      -2.857  66.154 -11.149  0.00  0.00    +0.160 C 
BRANCH  13  15
ATOM     14  C   VAL A   1      -2.670  66.948 -13.463  0.00  0.00    +0.238 C 
ATOM     15  N   VAL A   2      -2.140  66.824 -12.233  0.00  0.00    -0.297 N 
ATOM     16  H   VAL A   2      -1.194  67.215 -12.048  0.00  0.00    +0.150 HD
ATOM     17  O   VAL A   1      -3.783  66.508 -13.764  0.00  0.00    -0.274 OA
BRANCH  14  18
ATOM     18  CA  VAL A   1      -1.819  67.638 -14.532  0.00  0.00    +0.145 C 
BRANCH  18  19
ATOM     19  N   VAL A   1      -1.577  66.723 -15.657  0.00  0.00    -0.238 NA
ATOM     20  H   VAL A   1      -2.390  66.228 -16.076  0.00  0.00    +0.142 HD
ENDBRANCH  18  19
BRANCH  18  21
ATOM     21  CB  VAL A   1      -2.511  68.927 -15.062  0.00  0.00    +0.030 C 
BRANCH  21  22
ATOM     22  CG  VAL A   1      -1.822  69.535 -16.285  0.00  0.00    +0.045 C 
BRANCH  22  23
ATOM     23  CD  VAL A   1      -2.648  70.600 -16.975  0.00  0.00    +0.174 C 
BRANCH  23  24
ATOM     24  NE  VAL A   1      -1.847  71.390 -17.905  0.00  0.00    -0.265 N 
ATOM     25  HE  VAL A   1      -1.400  72.257 -17.543  0.00  0.00    +0.259 HD
ATOM     26  CZ  VAL A   1      -1.648  71.079 -19.185  0.00  0.00    +0.342 C 
ATOM     27  NH2 VAL A   1      -2.197  69.985 -19.707  0.00  0.00    -0.292 N 
ATOM     28 HH21 VAL A   1      -2.786  69.366 -19.115  0.00  0.00    +0.255 HD
ATOM     29 HH22 VAL A   1      -2.037  69.749 -20.707  0.00  0.00    +0.255 HD
ATOM     30  NH1 VAL A   1      -0.899  71.860 -19.956  0.00  0.00    -0.292 N 
ATOM     31 HH11 VAL A   1      -0.465  72.719 -19.561  0.00  0.00    +0.255 HD
ATOM     32 HH12 VAL A   1      -0.747  71.613 -20.955  0.00  0.00    +0.255 HD
ENDBRANCH  23  24
ENDBRANCH  22  23
ENDBRANCH  21  22
ENDBRANCH  18  21
ENDBRANCH  14  18
ENDBRANCH  13  15
BRANCH  13  33
ATOM     33  CB  VAL A   2      -2.933  64.614 -11.418  0.00  0.00    +0.143 C 
BRANCH  33  34
ATOM     34  CG  VAL A   2      -4.112  63.852 -10.787  0.00  0.00    +0.367 C 
ATOM     35  OD2 VAL A   2      -4.907  64.488 -10.040  0.00  0.00    -0.246 OA
ATOM     36  OD1 VAL A   2      -4.252  62.626 -11.061  0.00  0.00    -0.246 OA
ENDBRANCH  33  34
ENDBRANCH  13  33
ENDBRANCH   9  13
ENDBRANCH   8  10
BRANCH   8  37
ATOM     37  CB  SER A   3      -3.703  66.215  -6.410  0.00  0.00    +0.166 C 
BRANCH  37  38
ATOM     38  OG  SER A   3      -4.810  65.377  -6.701  0.00  0.00    -0.380 OA
ATOM     39  H   SER A   3      -5.547  65.576  -6.071  0.00  0.00    +0.211 HD
ENDBRANCH  37  38
ENDBRANCH   8  37
ENDBRANCH   4   8
ENDBRANCH   3   5
BRANCH   3  40
ATOM     40  C   TRP A   4      -0.491  62.667  -4.459  0.00  0.00    +0.242 C 
ATOM     41  O   TRP A   4      -0.819  63.547  -3.677  0.00  0.00    -0.273 OA
ATOM     42  N   GLY A   5      -0.053  61.465  -4.049  0.00  0.00    -0.297 N 
ATOM     43  H   GLY A   5       0.155  60.743  -4.768  0.00  0.00    +0.150 HD
BRANCH  42  44
ATOM     44  CA  GLY A   5       0.147  61.119  -2.631  0.00  0.00    +0.149 C 
BRANCH  44  45
ATOM     45  C   GLY A   5       0.983  62.212  -1.967  0.00  0.00    +0.241 C 
ATOM     46  N   GLU A   6       0.505  62.680  -0.831  0.00  0.00    -0.295 N 
ATOM     47  H   GLU A   6      -0.366  62.268  -0.439  0.00  0.00    +0.150 HD
ATOM     48  O   GLY A   5       2.016  62.646  -2.504  0.00  0.00    -0.273 OA
BRANCH  46  49
ATOM     49  CA  GLU A   6       1.166  63.758  -0.113  0.00  0.00    +0.176 C 
BRANCH  49  50
ATOM     50  C   GLU A   6       0.486  65.090  -0.309  0.00  0.00    +0.243 C 
ATOM     51  O   GLU A   6       0.714  66.009   0.479  0.00  0.00    -0.273 OA
ATOM     52  N   GLY A   7      -0.348  65.208  -1.371  0.00  0.00    -0.296 N 
ATOM     53  H   GLY A   7      -0.441  64.402  -2.022  0.00  0.00    +0.150 HD
BRANCH  52  54
ATOM     54  CA  GLY A   7      -1.128  66.427  -1.644  0.00  0.00    +0.160 C 
BRANCH  54  55
ATOM     55  C   GLY A   7      -2.486  66.345  -0.955  0.00  0.00    +0.241 C 
ATOM     56  N   CYS A   8      -2.896  65.117  -0.536  0.00  0.00    -0.295 N 
ATOM     57  H   CYS A   8      -2.259  64.315  -0.719  0.00  0.00    +0.150 HD
ATOM     58  O   GLY A   7      -3.159  67.370  -0.835  0.00  0.00    -0.273 OA
BRANCH  56  59
ATOM     59  CA  CYS A   8      -4.166  64.825   0.155  0.00  0.00    +0.178 C 
BRANCH  59  60
ATOM     60  C   CYS A   8      -4.441  65.803   1.267  0.00  0.00    +0.243 C 
ATOM     61  O   CYS A   8      -3.514  66.193   1.983  0.00  0.00    -0.273 OA
ATOM     62  N   ALA A   9      -5.684  66.252   1.363  0.00  0.00    -0.295 N 
ATOM     63  H   ALA A   9      -6.404  65.897   0.702  0.00  0.00    +0.150 HD
BRANCH  62  64
ATOM     64  CA  ALA A   9      -6.067  67.234   2.376  0.00  0.00    +0.176 C 
BRANCH  64  65
ATOM     65  C   ALA A   9      -5.941  68.669   1.917  0.00  0.00    +0.243 C 
ATOM     66  O   ALA A   9      -6.654  69.554   2.401  0.00  0.00    -0.273 OA
ATOM     67  N   GLN A  10      -5.033  68.889   0.973  0.00  0.00    -0.296 N 
ATOM     68  H   GLN A  10      -4.495  68.074   0.615  0.00  0.00    +0.150 HD
BRANCH  67  69
ATOM     69  CA  GLN A  10      -4.743  70.197   0.408  0.00  0.00    +0.163 C 
BRANCH  69  70
ATOM     70  C   GLN A  10      -5.858  70.775  -0.435  0.00  0.00    +0.229 C 
ATOM     71  O   GLN A  10      -6.831  70.085  -0.772  0.00  0.00    -0.286 OA
ENDBRANCH  69  70
ENDBRANCH  67  69
ENDBRANCH  64  65
ENDBRANCH  62  64
ENDBRANCH  59  60
BRANCH  59  72
ATOM     72  CB  CYS A   8      -4.165  63.408   0.712  0.00  0.00    +0.166 C 
BRANCH  72  73
ATOM     73  O   CYS A   8      -4.346  62.480  -0.342  0.00  0.00    -0.380 OA
ATOM     74  H   CYS A   8      -4.345  61.561   0.025  0.00  0.00    +0.211 HD
ENDBRANCH  72  73
ENDBRANCH  59  72
ENDBRANCH  56  59
ENDBRANCH  54  55
BRANCH  54  75
ATOM     75  CB  GLY A   7      -1.342  66.667  -3.148  0.00  0.00    +0.143 C 
BRANCH  75  76
ATOM     76  CG  GLY A   7      -0.083  66.972  -3.921  0.00  0.00    +0.367 C 
ATOM     77  OD2 GLY A   7       0.725  67.778  -3.439  0.00  0.00    -0.246 OA
ATOM     78  OD1 GLY A   7       0.075  66.427  -5.030  0.00  0.00    -0.246 OA
ENDBRANCH  75  76
ENDBRANCH  54  75
ENDBRANCH  52  54
ENDBRANCH  49  50
ENDBRANCH  46  49
ENDBRANCH  44  45
BRANCH  44  79
ATOM     79  CB  GLY A   5       0.840  59.757  -2.452  0.00  0.00    +0.039 C 
BRANCH  79  80
ATOM     80  CG  GLY A   5       0.083  58.522  -2.949  0.00  0.00    +0.087 C 
BRANCH  80  81
ATOM     81  CD  GLY A   5       0.353  58.218  -4.409  0.00  0.00    +0.219 C 
ATOM     82  NE2 GLY A   5       1.615  57.960  -4.801  0.00  0.00    -0.329 N 
ATOM     83 HE21 GLY A   5       2.390  57.983  -4.108  0.00  0.00    +0.145 HD
ATOM     84 HE22 GLY A   5       1.815  57.738  -5.797  0.00  0.00    +0.145 HD
ATOM     85  OE1 GLY A   5      -0.567  58.195  -5.210  0.00  0.00    -0.275 OA
ENDBRANCH  80  81
ENDBRANCH  79  80
ENDBRANCH  44  79
ENDBRANCH  42  44
ENDBRANCH   3  40
ENDBRANCH   2   3
ENDBRANCH   1   2
BRANCH   1  86
ATOM     86  SG  CYS A   8      -0.665  60.109  -7.813  0.00  0.00    -0.080 S 
BRANCH  86  87
ATOM     87  CB  CYS A   8      -0.582  60.506  -9.577  0.00  0.00    +0.098 C 
BRANCH  87  88
ATOM     88  CA  CYS A   8      -1.781  59.998 -10.382  0.00  0.00    +0.160 C 
BRANCH  88  89
ATOM     89  N   CYS A   8      -1.980  58.574 -10.123  0.00  0.00    -0.296 N 
ATOM     90  C   GLY A   7      -2.922  58.080  -9.327  0.00  0.00    +0.243 C 
ATOM     91  O   GLY A   7      -3.804  58.779  -8.825  0.00  0.00    -0.273 OA
ATOM     92  H   CYS A   8      -1.341  57.902 -10.594  0.00  0.00    +0.150 HD
BRANCH  90  93
ATOM     93  CA  GLY A   7      -2.901  56.579  -9.116  0.00  0.00    +0.176 C 
BRANCH  93  94
ATOM     94  N   GLY A   7      -4.223  56.078  -8.774  0.00  0.00    -0.295 N 
ATOM     95  H   GLY A   7      -4.387  55.674  -7.830  0.00  0.00    +0.150 HD
ATOM     96  C   GLU A   6      -5.231  56.127  -9.649  0.00  0.00    +0.241 C 
ATOM     97  O   GLU A   6      -5.135  56.602 -10.802  0.00  0.00    -0.273 OA
BRANCH  96  98
ATOM     98  CA  GLU A   6      -6.574  55.651  -9.119  0.00  0.00    +0.149 C 
BRANCH  98  99
ATOM     99  N   GLU A   6      -7.324  56.857  -8.831  0.00  0.00    -0.297 N 
ATOM    100  C   GLY A   5      -7.390  57.325  -7.576  0.00  0.00    +0.243 C 
ATOM    101  O   GLY A   5      -6.893  56.741  -6.619  0.00  0.00    -0.273 OA
ATOM    102  H   GLU A   6      -7.812  57.361  -9.599  0.00  0.00    +0.150 HD
BRANCH 100 103
ATOM    103  CA  GLY A   5      -8.127  58.621  -7.353  0.00  0.00    +0.176 C 
BRANCH 103 104
ATOM    104  N   GLY A   5      -8.114  58.926  -5.933  0.00  0.00    -0.295 N 
ATOM    105  H   GLY A   5      -7.918  58.139  -5.282  0.00  0.00    +0.150 HD
ATOM    106  C   TRP A   4      -8.329  60.113  -5.395  0.00  0.00    +0.241 C 
ATOM    107  O   TRP A   4      -8.490  61.145  -6.038  0.00  0.00    -0.273 OA
BRANCH 106 108
ATOM    108  CA  TRP A   4      -8.346  60.127  -3.880  0.00  0.00    +0.153 C 
BRANCH 108 109
ATOM    109  N   TRP A   4      -8.836  61.394  -3.345  0.00  0.00    -0.297 N 
ATOM    110  C   SER A   3      -8.555  61.785  -2.095  0.00  0.00    +0.243 C 
ATOM    111  O   SER A   3      -7.881  61.113  -1.334  0.00  0.00    -0.273 OA
ATOM    112  H   TRP A   4      -9.418  62.008  -3.950  0.00  0.00    +0.150 HD
BRANCH 110 113
ATOM    113  CA  SER A   3      -9.155  63.103  -1.597  0.00  0.00    +0.178 C 
BRANCH 113 114
ATOM    114  N   SER A   3      -8.633  64.298  -2.270  0.00  0.00    -0.295 N 
ATOM    115  C   VAL A   2      -7.965  65.262  -1.595  0.00  0.00    +0.241 C 
ATOM    116  O   VAL A   2      -7.746  65.218  -0.383  0.00  0.00    -0.273 OA
ATOM    117  H   SER A   3      -8.780  64.407  -3.294  0.00  0.00    +0.150 HD
BRANCH 115 118
ATOM    118  CA  VAL A   2      -7.565  66.509  -2.385  0.00  0.00    +0.148 C 
BRANCH 118 119
ATOM    119  N   VAL A   2      -8.220  67.661  -1.754  0.00  0.00    -0.297 N 
ATOM    120  H   VAL A   2      -7.631  68.463  -1.452  0.00  0.00    +0.150 HD
ATOM    121  C   VAL A   1      -9.568  67.727  -1.546  0.00  0.00    +0.238 C 
ATOM    122  O   VAL A   1     -10.346  66.838  -1.893  0.00  0.00    -0.274 OA
BRANCH 121 123
ATOM    123  CA  VAL A   1     -10.144  68.962  -0.825  0.00  0.00    +0.145 C 
BRANCH 123 124
ATOM    124  CB  VAL A   1     -10.678  68.606   0.591  0.00  0.00    +0.025 C 
ATOM    125  CG2 VAL A   1      -9.571  67.995   1.454  0.00  0.00    +0.002 C 
ATOM    126  CG1 VAL A   1     -11.292  69.828   1.286  0.00  0.00    +0.002 C 
ENDBRANCH 123 124
BRANCH 123 127
ATOM    127  N   VAL A   1     -11.184  69.476  -1.706  0.00  0.00    -0.238 NA
ATOM    128  H   VAL A   1     -11.990  68.854  -1.915  0.00  0.00    +0.142 HD
ENDBRANCH 123 127
ENDBRANCH 121 123
ENDBRANCH 118 119
BRANCH 118 129
ATOM    129  CB  VAL A   2      -6.017  66.641  -2.503  0.00  0.00    +0.027 C 
ATOM    130  CG2 VAL A   2      -5.409  65.373  -3.148  0.00  0.00    +0.002 C 
ATOM    131  CG1 VAL A   2      -5.619  67.896  -3.284  0.00  0.00    +0.002 C 
ENDBRANCH 118 129
ENDBRANCH 115 118
ENDBRANCH 113 114
BRANCH 113 132
ATOM    132  CB  SER A   3     -10.682  63.078  -1.674  0.00  0.00    +0.166 C 
BRANCH 132 133
ATOM    133  OG  SER A   3     -11.221  61.945  -1.013  0.00  0.00    -0.380 OA
ATOM    134  H   SER A   3     -10.956  61.964  -0.059  0.00  0.00    +0.211 HD
ENDBRANCH 132 133
ENDBRANCH 113 132
ENDBRANCH 110 113
ENDBRANCH 108 109
BRANCH 108 135
ATOM    135  CB  TRP A   4      -9.176  58.946  -3.328  0.00  0.00    +0.057 C 
BRANCH 135 136
ATOM    136  CG  TRP A   4     -10.607  58.869  -3.815  0.00  0.00    -0.002 A 
ATOM    137  CD1 TRP A   4     -11.647  59.661  -3.436  0.00  0.00    +0.068 A 
ATOM    138  NE1 TRP A   4     -12.805  59.233  -4.027  0.00  0.00    -0.352 N 
ATOM    139  HE1 TRP A   4     -13.740  59.673  -3.907  0.00  0.00    +0.166 HD
ATOM    140  CE2 TRP A   4     -12.539  58.134  -4.802  0.00  0.00    +0.056 A 
ATOM    141  CZ2 TRP A   4     -13.392  57.356  -5.598  0.00  0.00    +0.017 A 
ATOM    142  CH2 TRP A   4     -12.825  56.327  -6.313  0.00  0.00    +0.001 A 
ATOM    143  CZ3 TRP A   4     -11.451  56.048  -6.231  0.00  0.00    +0.000 A 
ATOM    144  CE3 TRP A   4     -10.612  56.807  -5.431  0.00  0.00    +0.001 A 
ATOM    145  CD2 TRP A   4     -11.155  57.887  -4.711  0.00  0.00    +0.013 A 
ENDBRANCH 135 136
ENDBRANCH 108 135
ENDBRANCH 106 108
ENDBRANCH 103 104
ENDBRANCH 100 103
ENDBRANCH  98  99
BRANCH  98 146
ATOM    146  CB  GLU A   6      -7.293  54.741 -10.106  0.00  0.00    +0.041 C 
BRANCH 146 147
ATOM    147  CG  GLU A   6      -6.682  53.356 -10.182  0.00  0.00    +0.116 C 
BRANCH 147 148
ATOM    148  CD  GLU A   6      -6.934  52.672 -11.506  0.00  0.00    +0.365 C 
ATOM    149  OE2 GLU A   6      -8.082  52.241 -11.736  0.00  0.00    -0.246 OA
ATOM    150  OE1 GLU A   6      -5.998  52.595 -12.333  0.00  0.00    -0.246 OA
ENDBRANCH 147 148
ENDBRANCH 146 147
ENDBRANCH  98 146
ENDBRANCH  96  98
ENDBRANCH  93  94
ENDBRANCH  90  93
ENDBRANCH  88  89
BRANCH  88 151
ATOM    151  C   CYS A   8      -1.568  60.205 -11.864  0.00  0.00    +0.242 C 
ATOM    152  O   CYS A   8      -0.754  59.499 -12.460  0.00  0.00    -0.273 OA
ATOM    153  N   ALA A   9      -2.325  61.143 -12.463  0.00  0.00    -0.297 N 
ATOM    154  H   ALA A   9      -2.977  61.688 -11.863  0.00  0.00    +0.150 HD
BRANCH 153 155
ATOM    155  CA  ALA A   9      -2.302  61.456 -13.899  0.00  0.00    +0.149 C 
ATOM    156  CB  ALA A   9      -1.113  62.338 -14.229  0.00  0.00    +0.031 C 
BRANCH 155 157
ATOM    157  C   ALA A   9      -2.340  60.196 -14.807  0.00  0.00    +0.241 C 
ATOM    158  N   GLN A  10      -3.176  59.212 -14.433  0.00  0.00    -0.298 N 
ATOM    159  H   GLN A  10      -3.717  59.343 -13.554  0.00  0.00    +0.150 HD
ATOM    160  O   ALA A   9      -1.608  60.113 -15.794  0.00  0.00    -0.273 OA
BRANCH 158 161
ATOM    161  CA  GLN A  10      -3.378  57.965 -15.180  0.00  0.00    +0.137 C 
BRANCH 161 162
ATOM    162  C   GLN A  10      -4.499  58.137 -16.198  0.00  0.00    +0.227 C 
ATOM    163  O   GLN A  10      -5.451  58.877 -15.909  0.00  0.00    -0.286 OA
ENDBRANCH 161 162
BRANCH 161 164
ATOM    164  CB  GLN A  10      -3.713  56.760 -14.257  0.00  0.00    +0.037 C 
BRANCH 164 165
ATOM    165  CG  GLN A  10      -2.654  56.448 -13.187  0.00  0.00    +0.087 C 
BRANCH 165 166
ATOM    166  CD  GLN A  10      -1.407  55.762 -13.685  0.00  0.00    +0.219 C 
ATOM    167  NE2 GLN A  10      -1.072  54.648 -13.060  0.00  0.00    -0.329 N 
ATOM    168 HE21 GLN A  10      -1.699  54.253 -12.330  0.00  0.00    +0.145 HD
ATOM    169 HE22 GLN A  10      -0.182  54.166 -13.298  0.00  0.00    +0.145 HD
ATOM    170  OE1 GLN A  10      -0.683  56.251 -14.553  0.00  0.00    -0.275 OA
ENDBRANCH 165 166
ENDBRANCH 164 165
ENDBRANCH 161 164
ENDBRANCH 158 161
ENDBRANCH 155 157
ENDBRANCH 153 155
ENDBRANCH  88 151
ENDBRANCH  87  88
ENDBRANCH  86  87
ENDBRANCH   1  86
TORSDOF 72
REMARK  Name = ../refined-set-2016/4a6l/4a6l_pocket.pdb
REMARK  225 active torsions:
REMARK  status: ('A' for Active; 'I' for Inactive)
REMARK    1  A    between atoms: _1  and  _5
REMARK    2  A    between atoms: _5  and  _6
REMARK    3  A    between atoms: _5  and  _8
REMARK    4  A    between atoms: _8  and  _9
REMARK    5  A    between atoms: _12  and  _14
REMARK    6  A    between atoms: _14  and  _15
REMARK    7  A    between atoms: _14  and  _17
REMARK    8  A    between atoms: _20  and  _22
REMARK    9  A    between atoms: _22  and  _23
REMARK   10  A    between atoms: _22  and  _25
REMARK   11  A    between atoms: _25  and  _26
REMARK   12  A    between atoms: _31  and  _33
REMARK   13  A    between atoms: _33  and  _34
REMARK   14  A    between atoms: _37  and  _39
REMARK   15  A    between atoms: _39  and  _40
REMARK   16  A    between atoms: _39  and  _42
REMARK   17  A    between atoms: _42  and  _43
REMARK   18  A    between atoms: _43  and  _44
REMARK   19  A    between atoms: _49  and  _51
REMARK   20  A    between atoms: _51  and  _52
REMARK   21  A    between atoms: _51  and  _54
REMARK   22  A    between atoms: _57  and  _59
REMARK   23  A    between atoms: _59  and  _60
REMARK   24  A    between atoms: _59  and  _62
REMARK   25  A    between atoms: _62  and  _63
REMARK   26  A    between atoms: _66  and  _68
REMARK   27  A    between atoms: _68  and  _69
REMARK   28  A    between atoms: _68  and  _71
REMARK   29  A    between atoms: _71  and  _72
REMARK   30  A    between atoms: _77  and  _79
REMARK   31  A    between atoms: _79  and  _80
REMARK   32  A    between atoms: _79  and  _82
REMARK   33  A    between atoms: _82  and  _83
REMARK   34  A    between atoms: _86  and  _88
REMARK   35  A    between atoms: _88  and  _89
REMARK   36  A    between atoms: _88  and  _91
REMARK   37  A    between atoms: _91  and  _92
REMARK   38  A    between atoms: _95  and  _97
REMARK   39  A    between atoms: _97  and  _98
REMARK   40  A    between atoms: _97  and  _100
REMARK   41  A    between atoms: _100  and  _101
REMARK   42  A    between atoms: _101  and  _102
REMARK   43  A    between atoms: _102  and  _103
REMARK   44  A    between atoms: _103  and  _104
REMARK   45  A    between atoms: _108  and  _110
REMARK   46  A    between atoms: _110  and  _111
REMARK   47  A    between atoms: _110  and  _113
REMARK   48  A    between atoms: _113  and  _114
REMARK   49  A    between atoms: _119  and  _120
REMARK   50  A    between atoms: _122  and  _124
REMARK   51  A    between atoms: _124  and  _125
REMARK   52  A    between atoms: _124  and  _127
REMARK   53  A    between atoms: _127  and  _128
REMARK   54  A    between atoms: _133  and  _135
REMARK   55  A    between atoms: _135  and  _136
REMARK   56  A    between atoms: _135  and  _138
REMARK   57  A    between atoms: _138  and  _139
REMARK   58  A    between atoms: _142  and  _144
REMARK   59  A    between atoms: _144  and  _145
REMARK   60  A    between atoms: _147  and  _149
REMARK   61  A    between atoms: _149  and  _150
REMARK   62  A    between atoms: _153  and  _155
REMARK   63  A    between atoms: _155  and  _156
REMARK   64  A    between atoms: _155  and  _158
REMARK   65  A    between atoms: _158  and  _159
REMARK   66  A    between atoms: _164  and  _165
REMARK   67  A    between atoms: _167  and  _169
REMARK   68  A    between atoms: _169  and  _170
REMARK   69  A    between atoms: _169  and  _172
REMARK   70  A    between atoms: _172  and  _173
REMARK   71  A    between atoms: _176  and  _178
REMARK   72  A    between atoms: _178  and  _179
REMARK   73  A    between atoms: _178  and  _181
REMARK   74  A    between atoms: _184  and  _186
REMARK   75  A    between atoms: _186  and  _187
REMARK   76  A    between atoms: _186  and  _189
REMARK   77  A    between atoms: _189  and  _190
REMARK   78  A    between atoms: _190  and  _191
REMARK   79  A    between atoms: _191  and  _192
REMARK   80  A    between atoms: _201  and  _203
REMARK   81  A    between atoms: _203  and  _204
REMARK   82  A    between atoms: _203  and  _206
REMARK   83  A    between atoms: _206  and  _207
REMARK   84  A    between atoms: _210  and  _212
REMARK   85  A    between atoms: _212  and  _213
REMARK   86  A    between atoms: _212  and  _215
REMARK   87  A    between atoms: _218  and  _220
REMARK   88  A    between atoms: _220  and  _221
REMARK   89  A    between atoms: _220  and  _223
REMARK   90  A    between atoms: _223  and  _224
REMARK   91  A    between atoms: _224  and  _225
REMARK   92  A    between atoms: _225  and  _226
REMARK   93  A    between atoms: _235  and  _237
REMARK   94  A    between atoms: _237  and  _238
REMARK   95  A    between atoms: _241  and  _243
REMARK   96  A    between atoms: _243  and  _244
REMARK   97  A    between atoms: _246  and  _248
REMARK   98  A    between atoms: _248  and  _249
REMARK   99  A    between atoms: _248  and  _251
REMARK  100  A    between atoms: _251  and  _252
REMARK  101  A    between atoms: _257  and  _259
REMARK  102  A    between atoms: _259  and  _260
REMARK  103  A    between atoms: _259  and  _262
REMARK  104  A    between atoms: _262  and  _263
REMARK  105  A    between atoms: _263  and  _264
REMARK  106  A    between atoms: _264  and  _265
REMARK  107  A    between atoms: _274  and  _276
REMARK  108  A    between atoms: _276  and  _277
REMARK  109  A    between atoms: _276  and  _279
REMARK  110  A    between atoms: _279  and  _280
REMARK  111  A    between atoms: _283  and  _285
REMARK  112  A    between atoms: _285  and  _286
REMARK  113  A    between atoms: _285  and  _288
REMARK  114  A    between atoms: _288  and  _289
REMARK  115  A    between atoms: _291  and  _293
REMARK  116  A    between atoms: _293  and  _294
REMARK  117  A    between atoms: _293  and  _296
REMARK  118  A    between atoms: _296  and  _297
REMARK  119  A    between atoms: _297  and  _408
REMARK  120  A    between atoms: _298  and  _300
REMARK  121  A    between atoms: _300  and  _301
REMARK  122  A    between atoms: _300  and  _303
REMARK  123  A    between atoms: _303  and  _304
REMARK  124  A    between atoms: _304  and  _305
REMARK  125  A    between atoms: _310  and  _312
REMARK  126  A    between atoms: _312  and  _313
REMARK  127  A    between atoms: _315  and  _317
REMARK  128  A    between atoms: _317  and  _318
REMARK  129  A    between atoms: _317  and  _320
REMARK  130  A    between atoms: _320  and  _321
REMARK  131  A    between atoms: _324  and  _326
REMARK  132  A    between atoms: _326  and  _327
REMARK  133  A    between atoms: _326  and  _329
REMARK  134  A    between atoms: _329  and  _330
REMARK  135  A    between atoms: _332  and  _334
REMARK  136  A    between atoms: _334  and  _335
REMARK  137  A    between atoms: _337  and  _339
REMARK  138  A    between atoms: _339  and  _340
REMARK  139  A    between atoms: _342  and  _344
REMARK  140  A    between atoms: _344  and  _345
REMARK  141  A    between atoms: _344  and  _347
REMARK  142  A    between atoms: _350  and  _352
REMARK  143  A    between atoms: _352  and  _353
REMARK  144  A    between atoms: _352  and  _355
REMARK  145  A    between atoms: _358  and  _360
REMARK  146  A    between atoms: _360  and  _361
REMARK  147  A    between atoms: _360  and  _363
REMARK  148  A    between atoms: _363  and  _364
REMARK  149  A    between atoms: _366  and  _368
REMARK  150  A    between atoms: _368  and  _369
REMARK  151  A    between atoms: _368  and  _371
REMARK  152  A    between atoms: _371  and  _372
REMARK  153  A    between atoms: _382  and  _384
REMARK  154  A    between atoms: _384  and  _385
REMARK  155  A    between atoms: _387  and  _389
REMARK  156  A    between atoms: _389  and  _390
REMARK  157  A    between atoms: _389  and  _392
REMARK  158  A    between atoms: _392  and  _393
REMARK  159  A    between atoms: _393  and  _394
REMARK  160  A    between atoms: _397  and  _399
REMARK  161  A    between atoms: _399  and  _400
REMARK  162  A    between atoms: _402  and  _404
REMARK  163  A    between atoms: _404  and  _405
REMARK  164  A    between atoms: _404  and  _407
REMARK  165  A    between atoms: _407  and  _408
REMARK  166  A    between atoms: _409  and  _411
REMARK  167  A    between atoms: _411  and  _412
REMARK  168  A    between atoms: _415  and  _417
REMARK  169  A    between atoms: _417  and  _418
REMARK  170  A    between atoms: _417  and  _420
REMARK  171  A    between atoms: _420  and  _421
REMARK  172  A    between atoms: _421  and  _422
REMARK  173  A    between atoms: _427  and  _429
REMARK  174  A    between atoms: _429  and  _430
REMARK  175  A    between atoms: _429  and  _432
REMARK  176  A    between atoms: _432  and  _433
REMARK  177  A    between atoms: _438  and  _440
REMARK  178  A    between atoms: _440  and  _441
REMARK  179  A    between atoms: _440  and  _443
REMARK  180  A    between atoms: _443  and  _444
REMARK  181  A    between atoms: _444  and  _445
REMARK  182  A    between atoms: _445  and  _446
REMARK  183  A    between atoms: _456  and  _457
REMARK  184  A    between atoms: _462  and  _464
REMARK  185  A    between atoms: _464  and  _465
REMARK  186  A    between atoms: _467  and  _469
REMARK  187  A    between atoms: _469  and  _470
REMARK  188  A    between atoms: _469  and  _472
REMARK  189  A    between atoms: _472  and  _473
REMARK  190  A    between atoms: _476  and  _478
REMARK  191  A    between atoms: _478  and  _479
REMARK  192  A    between atoms: _478  and  _481
REMARK  193  A    between atoms: _481  and  _482
REMARK  194  A    between atoms: _487  and  _488
REMARK  195  A    between atoms: _490  and  _492
REMARK  196  A    between atoms: _492  and  _493
REMARK  197  A    between atoms: _496  and  _497
REMARK  198  A    between atoms: _502  and  _504
REMARK  199  A    between atoms: _504  and  _505
REMARK  200  A    between atoms: _504  and  _507
REMARK  201  A    between atoms: _507  and  _508
REMARK  202  A    between atoms: _511  and  _513
REMARK  203  A    between atoms: _513  and  _514
REMARK  204  A    between atoms: _513  and  _516
REMARK  205  A    between atoms: _519  and  _521
REMARK  206  A    between atoms: _521  and  _522
REMARK  207  A    between atoms: _521  and  _524
REMARK  208  A    between atoms: _524  and  _525
REMARK  209  A    between atoms: _533  and  _534
REMARK  210  A    between atoms: _533  and  _536
REMARK  211  A    between atoms: _536  and  _537
REMARK  212  A    between atoms: _542  and  _543
REMARK  213  A    between atoms: _545  and  _547
REMARK  214  A    between atoms: _547  and  _548
REMARK  215  A    between atoms: _547  and  _550
REMARK  216  A    between atoms: _550  and  _551
REMARK  217  A    between atoms: _554  and  _556
REMARK  218  A    between atoms: _556  and  _557
REMARK  219  A    between atoms: _556  and  _559
REMARK  220  A    between atoms: _559  and  _560
REMARK  221  A    between atoms: _560  and  _561
REMARK  222  A    between atoms: _566  and  _568
REMARK  223  A    between atoms: _568  and  _569
REMARK  224  A    between atoms: _568  and  _571
REMARK  225  A    between atoms: _571  and  _572
REMARK                            x       y       z     vdW  Elec       q    Type
REMARK                         _______ _______ _______ _____ _____    ______ ____
ROOT
ATOM      1  C   ARG A   2      -8.328  59.798 -13.329  0.00  0.00    +0.244 C 
ATOM      2  O   ARG A   2      -7.318  59.990 -12.657  0.00  0.00    -0.273 OA
ATOM      3  N   PRO A   3      -9.224  60.801 -13.569  0.00  0.00    -0.272 N 
ATOM      4  CA  PRO A   3      -9.003  62.140 -12.987  0.00  0.00    +0.152 C 
ATOM      5  CB  PRO A   3     -10.207  62.946 -13.479  0.00  0.00    +0.031 C 
ATOM      6  CG  PRO A   3     -10.759  62.200 -14.627  0.00  0.00    +0.024 C 
ATOM      7  CD  PRO A   3     -10.491  60.770 -14.338  0.00  0.00    +0.094 C 
ENDROOT
BRANCH   4   8
ATOM      8  C   PRO A   3      -8.932  62.149 -11.461  0.00  0.00    +0.241 C 
ATOM      9  O   PRO A   3      -9.419  61.225 -10.810  0.00  0.00    -0.273 OA
ATOM     10  N   GLY A   4      -8.266  63.163 -10.904  0.00  0.00    -0.295 N 
ATOM     11  H   GLY A   4      -7.804  63.857 -11.525  0.00  0.00    +0.150 HD
BRANCH  10  12
ATOM     12  CA  GLY A   4      -8.160  63.337  -9.459  0.00  0.00    +0.176 C 
BRANCH  12  13
ATOM     13  C   GLY A   4      -9.527  63.581  -8.859  0.00  0.00    +0.243 C 
ATOM     14  N   ILE A   5      -9.798  62.948  -7.707  0.00  0.00    -0.297 N 
ATOM     15  H   ILE A   5      -9.072  62.337  -7.282  0.00  0.00    +0.150 HD
ATOM     16  O   GLY A   4     -10.354  64.290  -9.453  0.00  0.00    -0.273 OA
BRANCH  14  17
ATOM     17  CA  ILE A   5     -11.103  63.097  -7.027  0.00  0.00    +0.149 C 
BRANCH  17  18
ATOM     18  C   ILE A   5     -10.928  63.926  -5.760  0.00  0.00    +0.241 C 
ATOM     19  O   ILE A   5      -9.996  63.708  -4.975  0.00  0.00    -0.273 OA
ATOM     20  N   TYR A   6     -11.800  64.930  -5.616  0.00  0.00    -0.298 N 
ATOM     21  H   TYR A   6     -12.543  65.027  -6.338  0.00  0.00    +0.150 HD
BRANCH  20  22
ATOM     22  CA  TYR A   6     -11.792  65.892  -4.536  0.00  0.00    +0.141 C 
BRANCH  22  23
ATOM     23  C   TYR A   6     -13.064  65.812  -3.745  0.00  0.00    +0.227 C 
ATOM     24  O   TYR A   6     -14.119  65.526  -4.313  0.00  0.00    -0.286 OA
ENDBRANCH  22  23
BRANCH  22  25
ATOM     25  CB  TYR A   6     -11.652  67.320  -5.131  0.00  0.00    +0.054 C 
BRANCH  25  26
ATOM     26  CG  TYR A   6     -10.343  67.516  -5.867  0.00  0.00    -0.020 A 
ATOM     27  CD2 TYR A   6      -9.269  68.156  -5.259  0.00  0.00    -0.001 A 
ATOM     28  CE2 TYR A   6      -8.040  68.293  -5.918  0.00  0.00    +0.036 A 
ATOM     29  CZ  TYR A   6      -7.871  67.745  -7.182  0.00  0.00    +0.134 A 
ATOM     30  CE1 TYR A   6      -8.934  67.108  -7.803  0.00  0.00    +0.036 A 
ATOM     31  CD1 TYR A   6     -10.168  67.029  -7.160  0.00  0.00    -0.001 A 
BRANCH  29  32
ATOM     32  OH  TYR A   6      -6.666  67.870  -7.851  0.00  0.00    -0.506 OA
ATOM     33  HH  TYR A   6      -6.730  67.421  -8.731  0.00  0.00    +0.292 HD
ENDBRANCH  29  32
ENDBRANCH  25  26
ENDBRANCH  22  25
ENDBRANCH  20  22
ENDBRANCH  17  18
BRANCH  17  34
ATOM     34  CB  ILE A   5     -11.833  61.743  -6.809  0.00  0.00    +0.027 C 
ATOM     35  CG2 ILE A   5     -13.183  61.960  -6.092  0.00  0.00    +0.002 C 
BRANCH  34  36
ATOM     36  CG1 ILE A   5     -12.047  61.032  -8.169  0.00  0.00    +0.002 C 
ATOM     37  CD1 ILE A   5     -12.388  59.557  -8.123  0.00  0.00    +0.000 C 
ENDBRANCH  34  36
ENDBRANCH  17  34
ENDBRANCH  14  17
ENDBRANCH  12  13
ENDBRANCH  10  12
ENDBRANCH   4   8
BRANCH   1  38
ATOM     38  CA  ARG A   2      -8.586  58.386 -13.892  0.00  0.00    +0.149 C 
BRANCH  38  40
ATOM     39  C   ASN A   1      -9.478  57.809 -16.131  0.00  0.00    +0.239 C 
ATOM     40  N   ARG A   2      -8.495  58.339 -15.362  0.00  0.00    -0.297 N 
ATOM     41  H   ARG A   2      -7.648  58.725 -15.825  0.00  0.00    +0.150 HD
ATOM     42  O   ASN A   1     -10.521  57.322 -15.665  0.00  0.00    -0.274 OA
BRANCH  39  43
ATOM     43  CA  ASN A   1      -9.262  57.832 -17.650  0.00  0.00    +0.154 C 
BRANCH  43  44
ATOM     44  N   ASN A   1      -7.875  58.053 -18.061  0.00  0.00    -0.238 NA
ATOM     45  H   ASN A   1      -7.659  58.929 -18.578  0.00  0.00    +0.142 HD
ENDBRANCH  43  44
BRANCH  43  46
ATOM     46  CB  ASN A   1      -9.838  56.581 -18.339  0.00  0.00    +0.111 C 
BRANCH  46  47
ATOM     47  CG  ASN A   1      -9.889  56.742 -19.846  0.00  0.00    +0.221 C 
ATOM     48  OD1 ASN A   1     -10.191  57.820 -20.369  0.00  0.00    -0.275 OA
ATOM     49  ND2 ASN A   1      -9.582  55.682 -20.566  0.00  0.00    -0.329 N 
ATOM     50 HD21 ASN A   1      -9.332  54.789 -20.096  0.00  0.00    +0.145 HD
ATOM     51 HD22 ASN A   1      -9.590  55.739 -21.604  0.00  0.00    +0.145 HD
ENDBRANCH  46  47
ENDBRANCH  43  46
ENDBRANCH  39  43
ENDBRANCH  38  40
BRANCH  38  52
ATOM     52  CB  ARG A   2      -7.680  57.324 -13.238  0.00  0.00    +0.033 C 
BRANCH  52  53
ATOM     53  CG  ARG A   2      -7.908  55.890 -13.713  0.00  0.00    +0.045 C 
BRANCH  53  54
ATOM     54  CD  ARG A   2      -9.276  55.389 -13.276  0.00  0.00    +0.174 C 
BRANCH  54  55
ATOM     55  NE  ARG A   2      -9.453  53.969 -13.571  0.00  0.00    -0.265 N 
ATOM     56  HE  ARG A   2      -9.054  53.281 -12.901  0.00  0.00    +0.259 HD
ATOM     57  CZ  ARG A   2     -10.087  53.500 -14.634  0.00  0.00    +0.342 C 
ATOM     58  NH2 ARG A   2     -10.190  52.196 -14.825  0.00  0.00    -0.292 N 
ATOM     59 HH21 ARG A   2      -9.772  51.535 -14.139  0.00  0.00    +0.255 HD
ATOM     60 HH22 ARG A   2     -10.689  51.831 -15.661  0.00  0.00    +0.255 HD
ATOM     61  NH1 ARG A   2     -10.599  54.331 -15.530  0.00  0.00    -0.292 N 
ATOM     62 HH11 ARG A   2     -10.504  55.358 -15.400  0.00  0.00    +0.255 HD
ATOM     63 HH12 ARG A   2     -11.096  53.956 -16.363  0.00  0.00    +0.255 HD
ENDBRANCH  54  55
ENDBRANCH  53  54
ENDBRANCH  52  53
ENDBRANCH  38  52
ENDBRANCH   1  38
TORSDOF 22
REMARK  Name = ../refined-set-2016/4a6l/4a6l_pocket.pdb
REMARK  225 active torsions:
REMARK  status: ('A' for Active; 'I' for Inactive)
REMARK    1  A    between atoms: _1  and  _5
REMARK    2  A    between atoms: _5  and  _6
REMARK    3  A    between atoms: _5  and  _8
REMARK    4  A    between atoms: _8  and  _9
REMARK    5  A    between atoms: _12  and  _14
REMARK    6  A    between atoms: _14  and  _15
REMARK    7  A    between atoms: _14  and  _17
REMARK    8  A    between atoms: _20  and  _22
REMARK    9  A    between atoms: _22  and  _23
REMARK   10  A    between atoms: _22  and  _25
REMARK   11  A    between atoms: _25  and  _26
REMARK   12  A    between atoms: _31  and  _33
REMARK   13  A    between atoms: _33  and  _34
REMARK   14  A    between atoms: _37  and  _39
REMARK   15  A    between atoms: _39  and  _40
REMARK   16  A    between atoms: _39  and  _42
REMARK   17  A    between atoms: _42  and  _43
REMARK   18  A    between atoms: _43  and  _44
REMARK   19  A    between atoms: _49  and  _51
REMARK   20  A    between atoms: _51  and  _52
REMARK   21  A    between atoms: _51  and  _54
REMARK   22  A    between atoms: _57  and  _59
REMARK   23  A    between atoms: _59  and  _60
REMARK   24  A    between atoms: _59  and  _62
REMARK   25  A    between atoms: _62  and  _63
REMARK   26  A    between atoms: _66  and  _68
REMARK   27  A    between atoms: _68  and  _69
REMARK   28  A    between atoms: _68  and  _71
REMARK   29  A    between atoms: _71  and  _72
REMARK   30  A    between atoms: _77  and  _79
REMARK   31  A    between atoms: _79  and  _80
REMARK   32  A    between atoms: _79  and  _82
REMARK   33  A    between atoms: _82  and  _83
REMARK   34  A    between atoms: _86  and  _88
REMARK   35  A    between atoms: _88  and  _89
REMARK   36  A    between atoms: _88  and  _91
REMARK   37  A    between atoms: _91  and  _92
REMARK   38  A    between atoms: _95  and  _97
REMARK   39  A    between atoms: _97  and  _98
REMARK   40  A    between atoms: _97  and  _100
REMARK   41  A    between atoms: _100  and  _101
REMARK   42  A    between atoms: _101  and  _102
REMARK   43  A    between atoms: _102  and  _103
REMARK   44  A    between atoms: _103  and  _104
REMARK   45  A    between atoms: _108  and  _110
REMARK   46  A    between atoms: _110  and  _111
REMARK   47  A    between atoms: _110  and  _113
REMARK   48  A    between atoms: _113  and  _114
REMARK   49  A    between atoms: _119  and  _120
REMARK   50  A    between atoms: _122  and  _124
REMARK   51  A    between atoms: _124  and  _125
REMARK   52  A    between atoms: _124  and  _127
REMARK   53  A    between atoms: _127  and  _128
REMARK   54  A    between atoms: _133  and  _135
REMARK   55  A    between atoms: _135  and  _136
REMARK   56  A    between atoms: _135  and  _138
REMARK   57  A    between atoms: _138  and  _139
REMARK   58  A    between atoms: _142  and  _144
REMARK   59  A    between atoms: _144  and  _145
REMARK   60  A    between atoms: _147  and  _149
REMARK   61  A    between atoms: _149  and  _150
REMARK   62  A    between atoms: _153  and  _155
REMARK   63  A    between atoms: _155  and  _156
REMARK   64  A    between atoms: _155  and  _158
REMARK   65  A    between atoms: _158  and  _159
REMARK   66  A    between atoms: _164  and  _165
REMARK   67  A    between atoms: _167  and  _169
REMARK   68  A    between atoms: _169  and  _170
REMARK   69  A    between atoms: _169  and  _172
REMARK   70  A    between atoms: _172  and  _173
REMARK   71  A    between atoms: _176  and  _178
REMARK   72  A    between atoms: _178  and  _179
REMARK   73  A    between atoms: _178  and  _181
REMARK   74  A    between atoms: _184  and  _186
REMARK   75  A    between atoms: _186  and  _187
REMARK   76  A    between atoms: _186  and  _189
REMARK   77  A    between atoms: _189  and  _190
REMARK   78  A    between atoms: _190  and  _191
REMARK   79  A    between atoms: _191  and  _192
REMARK   80  A    between atoms: _201  and  _203
REMARK   81  A    between atoms: _203  and  _204
REMARK   82  A    between atoms: _203  and  _206
REMARK   83  A    between atoms: _206  and  _207
REMARK   84  A    between atoms: _210  and  _212
REMARK   85  A    between atoms: _212  and  _213
REMARK   86  A    between atoms: _212  and  _215
REMARK   87  A    between atoms: _218  and  _220
REMARK   88  A    between atoms: _220  and  _221
REMARK   89  A    between atoms: _220  and  _223
REMARK   90  A    between atoms: _223  and  _224
REMARK   91  A    between atoms: _224  and  _225
REMARK   92  A    between atoms: _225  and  _226
REMARK   93  A    between atoms: _235  and  _237
REMARK   94  A    between atoms: _237  and  _238
REMARK   95  A    between atoms: _241  and  _243
REMARK   96  A    between atoms: _243  and  _244
REMARK   97  A    between atoms: _246  and  _248
REMARK   98  A    between atoms: _248  and  _249
REMARK   99  A    between atoms: _248  and  _251
REMARK  100  A    between atoms: _251  and  _252
REMARK  101  A    between atoms: _257  and  _259
REMARK  102  A    between atoms: _259  and  _260
REMARK  103  A    between atoms: _259  and  _262
REMARK  104  A    between atoms: _262  and  _263
REMARK  105  A    between atoms: _263  and  _264
REMARK  106  A    between atoms: _264  and  _265
REMARK  107  A    between atoms: _274  and  _276
REMARK  108  A    between atoms: _276  and  _277
REMARK  109  A    between atoms: _276  and  _279
REMARK  110  A    between atoms: _279  and  _280
REMARK  111  A    between atoms: _283  and  _285
REMARK  112  A    between atoms: _285  and  _286
REMARK  113  A    between atoms: _285  and  _288
REMARK  114  A    between atoms: _288  and  _289
REMARK  115  A    between atoms: _291  and  _293
REMARK  116  A    between atoms: _293  and  _294
REMARK  117  A    between atoms: _293  and  _296
REMARK  118  A    between atoms: _296  and  _297
REMARK  119  A    between atoms: _297  and  _408
REMARK  120  A    between atoms: _298  and  _300
REMARK  121  A    between atoms: _300  and  _301
REMARK  122  A    between atoms: _300  and  _303
REMARK  123  A    between atoms: _303  and  _304
REMARK  124  A    between atoms: _304  and  _305
REMARK  125  A    between atoms: _310  and  _312
REMARK  126  A    between atoms: _312  and  _313
REMARK  127  A    between atoms: _315  and  _317
REMARK  128  A    between atoms: _317  and  _318
REMARK  129  A    between atoms: _317  and  _320
REMARK  130  A    between atoms: _320  and  _321
REMARK  131  A    between atoms: _324  and  _326
REMARK  132  A    between atoms: _326  and  _327
REMARK  133  A    between atoms: _326  and  _329
REMARK  134  A    between atoms: _329  and  _330
REMARK  135  A    between atoms: _332  and  _334
REMARK  136  A    between atoms: _334  and  _335
REMARK  137  A    between atoms: _337  and  _339
REMARK  138  A    between atoms: _339  and  _340
REMARK  139  A    between atoms: _342  and  _344
REMARK  140  A    between atoms: _344  and  _345
REMARK  141  A    between atoms: _344  and  _347
REMARK  142  A    between atoms: _350  and  _352
REMARK  143  A    between atoms: _352  and  _353
REMARK  144  A    between atoms: _352  and  _355
REMARK  145  A    between atoms: _358  and  _360
REMARK  146  A    between atoms: _360  and  _361
REMARK  147  A    between atoms: _360  and  _363
REMARK  148  A    between atoms: _363  and  _364
REMARK  149  A    between atoms: _366  and  _368
REMARK  150  A    between atoms: _368  and  _369
REMARK  151  A    between atoms: _368  and  _371
REMARK  152  A    between atoms: _371  and  _372
REMARK  153  A    between atoms: _382  and  _384
REMARK  154  A    between atoms: _384  and  _385
REMARK  155  A    between atoms: _387  and  _389
REMARK  156  A    between atoms: _389  and  _390
REMARK  157  A    between atoms: _389  and  _392
REMARK  158  A    between atoms: _392  and  _393
REMARK  159  A    between atoms: _393  and  _394
REMARK  160  A    between atoms: _397  and  _399
REMARK  161  A    between atoms: _399  and  _400
REMARK  162  A    between atoms: _402  and  _404
REMARK  163  A    between atoms: _404  and  _405
REMARK  164  A    between atoms: _404  and  _407
REMARK  165  A    between atoms: _407  and  _408
REMARK  166  A    between atoms: _409  and  _411
REMARK  167  A    between atoms: _411  and  _412
REMARK  168  A    between atoms: _415  and  _417
REMARK  169  A    between atoms: _417  and  _418
REMARK  170  A    between atoms: _417  and  _420
REMARK  171  A    between atoms: _420  and  _421
REMARK  172  A    between atoms: _421  and  _422
REMARK  173  A    between atoms: _427  and  _429
REMARK  174  A    between atoms: _429  and  _430
REMARK  175  A    between atoms: _429  and  _432
REMARK  176  A    between atoms: _432  and  _433
REMARK  177  A    between atoms: _438  and  _440
REMARK  178  A    between atoms: _440  and  _441
REMARK  179  A    between atoms: _440  and  _443
REMARK  180  A    between atoms: _443  and  _444
REMARK  181  A    between atoms: _444  and  _445
REMARK  182  A    between atoms: _445  and  _446
REMARK  183  A    between atoms: _456  and  _457
REMARK  184  A    between atoms: _462  and  _464
REMARK  185  A    between atoms: _464  and  _465
REMARK  186  A    between atoms: _467  and  _469
REMARK  187  A    between atoms: _469  and  _470
REMARK  188  A    between atoms: _469  and  _472
REMARK  189  A    between atoms: _472  and  _473
REMARK  190  A    between atoms: _476  and  _478
REMARK  191  A    between atoms: _478  and  _479
REMARK  192  A    between atoms: _478  and  _481
REMARK  193  A    between atoms: _481  and  _482
REMARK  194  A    between atoms: _487  and  _488
REMARK  195  A    between atoms: _490  and  _492
REMARK  196  A    between atoms: _492  and  _493
REMARK  197  A    between atoms: _496  and  _497
REMARK  198  A    between atoms: _502  and  _504
REMARK  199  A    between atoms: _504  and  _505
REMARK  200  A    between atoms: _504  and  _507
REMARK  201  A    between atoms: _507  and  _508
REMARK  202  A    between atoms: _511  and  _513
REMARK  203  A    between atoms: _513  and  _514
REMARK  204  A    between atoms: _513  and  _516
REMARK  205  A    between atoms: _519  and  _521
REMARK  206  A    between atoms: _521  and  _522
REMARK  207  A    between atoms: _521  and  _524
REMARK  208  A    between atoms: _524  and  _525
REMARK  209  A    between atoms: _533  and  _534
REMARK  210  A    between atoms: _533  and  _536
REMARK  211  A    between atoms: _536  and  _537
REMARK  212  A    between atoms: _542  and  _543
REMARK  213  A    between atoms: _545  and  _547
REMARK  214  A    between atoms: _547  and  _548
REMARK  215  A    between atoms: _547  and  _550
REMARK  216  A    between atoms: _550  and  _551
REMARK  217  A    between atoms: _554  and  _556
REMARK  218  A    between atoms: _556  and  _557
REMARK  219  A    between atoms: _556  and  _559
REMARK  220  A    between atoms: _559  and  _560
REMARK  221  A    between atoms: _560  and  _561
REMARK  222  A    between atoms: _566  and  _568
REMARK  223  A    between atoms: _568  and  _569
REMARK  224  A    between atoms: _568  and  _571
REMARK  225  A    between atoms: _571  and  _572
REMARK                            x       y       z     vdW  Elec       q    Type
REMARK                         _______ _______ _______ _____ _____    ______ ____
ROOT
ATOM      1  CA  ASP A   3      -9.811  47.031 -13.166  0.00  0.00    +0.160 C 
ENDROOT
BRANCH   1   3
ATOM      2  C   PRO A   2     -11.631  46.731 -11.583  0.00  0.00    +0.241 C 
ATOM      3  N   ASP A   3     -10.318  46.908 -11.800  0.00  0.00    -0.297 N 
ATOM      4  H   ASP A   3      -9.661  46.958 -10.996  0.00  0.00    +0.150 HD
ATOM      5  O   PRO A   2     -12.431  46.618 -12.492  0.00  0.00    -0.273 OA
BRANCH   2  12
ATOM      6  C   GLY A   1     -10.447  45.142  -8.932  0.00  0.00    +0.243 C 
ATOM      7  O   GLY A   1      -9.652  45.008  -8.012  0.00  0.00    -0.273 OA
ATOM      8  N   PRO A   2     -11.089  46.322  -9.140  0.00  0.00    -0.272 N 
ATOM      9  CD  PRO A   2     -10.871  47.482  -8.246  0.00  0.00    +0.094 C 
ATOM     10  CG  PRO A   2     -11.621  48.610  -8.918  0.00  0.00    +0.024 C 
ATOM     11  CB  PRO A   2     -12.777  47.903  -9.610  0.00  0.00    +0.031 C 
ATOM     12  CA  PRO A   2     -12.132  46.618 -10.150  0.00  0.00    +0.152 C 
BRANCH   6  13
ATOM     13  CA  GLY A   1     -10.677  43.993  -9.901  0.00  0.00    +0.170 C 
BRANCH  13  14
ATOM     14  N   GLY A   1     -10.085  42.722  -9.520  0.00  0.00    -0.236 NA
ATOM     15  H   GLY A   1      -9.916  42.534  -8.511  0.00  0.00    +0.142 HD
ENDBRANCH  13  14
ENDBRANCH   6  13
ENDBRANCH   2  12
ENDBRANCH   1   3
BRANCH   1  16
ATOM     16  C   ASP A   3      -9.743  45.720 -13.889  0.00  0.00    +0.241 C 
ATOM     17  O   ASP A   3      -9.397  44.704 -13.294  0.00  0.00    -0.273 OA
ATOM     18  N   VAL A   4     -10.066  45.759 -15.193  0.00  0.00    -0.298 N 
ATOM     19  H   VAL A   4     -10.360  46.671 -15.597  0.00  0.00    +0.150 HD
BRANCH  18  20
ATOM     20  CA  VAL A   4     -10.028  44.595 -16.076  0.00  0.00    +0.137 C 
BRANCH  20  21
ATOM     21  CB  VAL A   4     -10.855  44.856 -17.387  0.00  0.00    +0.026 C 
ATOM     22  CG2 VAL A   4     -12.323  45.179 -17.083  0.00  0.00    +0.002 C 
ATOM     23  CG1 VAL A   4     -10.754  43.672 -18.357  0.00  0.00    +0.002 C 
ENDBRANCH  20  21
BRANCH  20  24
ATOM     24  C   VAL A   4      -8.560  44.246 -16.393  0.00  0.00    +0.227 C 
ATOM     25  O   VAL A   4      -7.822  45.090 -16.874  0.00  0.00    -0.286 OA
ENDBRANCH  20  24
ENDBRANCH  18  20
ENDBRANCH   1  16
BRANCH   1  26
ATOM     26  CB  ASP A   3      -8.465  47.771 -13.228  0.00  0.00    +0.143 C 
BRANCH  26  27
ATOM     27  CG  ASP A   3      -8.530  49.237 -12.801  0.00  0.00    +0.367 C 
ATOM     28  OD2 ASP A   3      -7.497  49.762 -12.365  0.00  0.00    -0.246 OA
ATOM     29  OD1 ASP A   3      -9.643  49.844 -12.866  0.00  0.00    -0.246 OA
ENDBRANCH  26  27
ENDBRANCH   1  26
TORSDOF 10
REMARK  Name = ../refined-set-2016/4a6l/4a6l_pocket.pdb
REMARK  225 active torsions:
REMARK  status: ('A' for Active; 'I' for Inactive)
REMARK    1  A    between atoms: _1  and  _5
REMARK    2  A    between atoms: _5  and  _6
REMARK    3  A    between atoms: _5  and  _8
REMARK    4  A    between atoms: _8  and  _9
REMARK    5  A    between atoms: _12  and  _14
REMARK    6  A    between atoms: _14  and  _15
REMARK    7  A    between atoms: _14  and  _17
REMARK    8  A    between atoms: _20  and  _22
REMARK    9  A    between atoms: _22  and  _23
REMARK   10  A    between atoms: _22  and  _25
REMARK   11  A    between atoms: _25  and  _26
REMARK   12  A    between atoms: _31  and  _33
REMARK   13  A    between atoms: _33  and  _34
REMARK   14  A    between atoms: _37  and  _39
REMARK   15  A    between atoms: _39  and  _40
REMARK   16  A    between atoms: _39  and  _42
REMARK   17  A    between atoms: _42  and  _43
REMARK   18  A    between atoms: _43  and  _44
REMARK   19  A    between atoms: _49  and  _51
REMARK   20  A    between atoms: _51  and  _52
REMARK   21  A    between atoms: _51  and  _54
REMARK   22  A    between atoms: _57  and  _59
REMARK   23  A    between atoms: _59  and  _60
REMARK   24  A    between atoms: _59  and  _62
REMARK   25  A    between atoms: _62  and  _63
REMARK   26  A    between atoms: _66  and  _68
REMARK   27  A    between atoms: _68  and  _69
REMARK   28  A    between atoms: _68  and  _71
REMARK   29  A    between atoms: _71  and  _72
REMARK   30  A    between atoms: _77  and  _79
REMARK   31  A    between atoms: _79  and  _80
REMARK   32  A    between atoms: _79  and  _82
REMARK   33  A    between atoms: _82  and  _83
REMARK   34  A    between atoms: _86  and  _88
REMARK   35  A    between atoms: _88  and  _89
REMARK   36  A    between atoms: _88  and  _91
REMARK   37  A    between atoms: _91  and  _92
REMARK   38  A    between atoms: _95  and  _97
REMARK   39  A    between atoms: _97  and  _98
REMARK   40  A    between atoms: _97  and  _100
REMARK   41  A    between atoms: _100  and  _101
REMARK   42  A    between atoms: _101  and  _102
REMARK   43  A    between atoms: _102  and  _103
REMARK   44  A    between atoms: _103  and  _104
REMARK   45  A    between atoms: _108  and  _110
REMARK   46  A    between atoms: _110  and  _111
REMARK   47  A    between atoms: _110  and  _113
REMARK   48  A    between atoms: _113  and  _114
REMARK   49  A    between atoms: _119  and  _120
REMARK   50  A    between atoms: _122  and  _124
REMARK   51  A    between atoms: _124  and  _125
REMARK   52  A    between atoms: _124  and  _127
REMARK   53  A    between atoms: _127  and  _128
REMARK   54  A    between atoms: _133  and  _135
REMARK   55  A    between atoms: _135  and  _136
REMARK   56  A    between atoms: _135  and  _138
REMARK   57  A    between atoms: _138  and  _139
REMARK   58  A    between atoms: _142  and  _144
REMARK   59  A    between atoms: _144  and  _145
REMARK   60  A    between atoms: _147  and  _149
REMARK   61  A    between atoms: _149  and  _150
REMARK   62  A    between atoms: _153  and  _155
REMARK   63  A    between atoms: _155  and  _156
REMARK   64  A    between atoms: _155  and  _158
REMARK   65  A    between atoms: _158  and  _159
REMARK   66  A    between atoms: _164  and  _165
REMARK   67  A    between atoms: _167  and  _169
REMARK   68  A    between atoms: _169  and  _170
REMARK   69  A    between atoms: _169  and  _172
REMARK   70  A    between atoms: _172  and  _173
REMARK   71  A    between atoms: _176  and  _178
REMARK   72  A    between atoms: _178  and  _179
REMARK   73  A    between atoms: _178  and  _181
REMARK   74  A    between atoms: _184  and  _186
REMARK   75  A    between atoms: _186  and  _187
REMARK   76  A    between atoms: _186  and  _189
REMARK   77  A    between atoms: _189  and  _190
REMARK   78  A    between atoms: _190  and  _191
REMARK   79  A    between atoms: _191  and  _192
REMARK   80  A    between atoms: _201  and  _203
REMARK   81  A    between atoms: _203  and  _204
REMARK   82  A    between atoms: _203  and  _206
REMARK   83  A    between atoms: _206  and  _207
REMARK   84  A    between atoms: _210  and  _212
REMARK   85  A    between atoms: _212  and  _213
REMARK   86  A    between atoms: _212  and  _215
REMARK   87  A    between atoms: _218  and  _220
REMARK   88  A    between atoms: _220  and  _221
REMARK   89  A    between atoms: _220  and  _223
REMARK   90  A    between atoms: _223  and  _224
REMARK   91  A    between atoms: _224  and  _225
REMARK   92  A    between atoms: _225  and  _226
REMARK   93  A    between atoms: _235  and  _237
REMARK   94  A    between atoms: _237  and  _238
REMARK   95  A    between atoms: _241  and  _243
REMARK   96  A    between atoms: _243  and  _244
REMARK   97  A    between atoms: _246  and  _248
REMARK   98  A    between atoms: _248  and  _249
REMARK   99  A    between atoms: _248  and  _251
REMARK  100  A    between atoms: _251  and  _252
REMARK  101  A    between atoms: _257  and  _259
REMARK  102  A    between atoms: _259  and  _260
REMARK  103  A    between atoms: _259  and  _262
REMARK  104  A    between atoms: _262  and  _263
REMARK  105  A    between atoms: _263  and  _264
REMARK  106  A    between atoms: _264  and  _265
REMARK  107  A    between atoms: _274  and  _276
REMARK  108  A    between atoms: _276  and  _277
REMARK  109  A    between atoms: _276  and  _279
REMARK  110  A    between atoms: _279  and  _280
REMARK  111  A    between atoms: _283  and  _285
REMARK  112  A    between atoms: _285  and  _286
REMARK  113  A    between atoms: _285  and  _288
REMARK  114  A    between atoms: _288  and  _289
REMARK  115  A    between atoms: _291  and  _293
REMARK  116  A    between atoms: _293  and  _294
REMARK  117  A    between atoms: _293  and  _296
REMARK  118  A    between atoms: _296  and  _297
REMARK  119  A    between atoms: _297  and  _408
REMARK  120  A    between atoms: _298  and  _300
REMARK  121  A    between atoms: _300  and  _301
REMARK  122  A    between atoms: _300  and  _303
REMARK  123  A    between atoms: _303  and  _304
REMARK  124  A    between atoms: _304  and  _305
REMARK  125  A    between atoms: _310  and  _312
REMARK  126  A    between atoms: _312  and  _313
REMARK  127  A    between atoms: _315  and  _317
REMARK  128  A    between atoms: _317  and  _318
REMARK  129  A    between atoms: _317  and  _320
REMARK  130  A    between atoms: _320  and  _321
REMARK  131  A    between atoms: _324  and  _326
REMARK  132  A    between atoms: _326  and  _327
REMARK  133  A    between atoms: _326  and  _329
REMARK  134  A    between atoms: _329  and  _330
REMARK  135  A    between atoms: _332  and  _334
REMARK  136  A    between atoms: _334  and  _335
REMARK  137  A    between atoms: _337  and  _339
REMARK  138  A    between atoms: _339  and  _340
REMARK  139  A    between atoms: _342  and  _344
REMARK  140  A    between atoms: _344  and  _345
REMARK  141  A    between atoms: _344  and  _347
REMARK  142  A    between atoms: _350  and  _352
REMARK  143  A    between atoms: _352  and  _353
REMARK  144  A    between atoms: _352  and  _355
REMARK  145  A    between atoms: _358  and  _360
REMARK  146  A    between atoms: _360  and  _361
REMARK  147  A    between atoms: _360  and  _363
REMARK  148  A    between atoms: _363  and  _364
REMARK  149  A    between atoms: _366  and  _368
REMARK  150  A    between atoms: _368  and  _369
REMARK  151  A    between atoms: _368  and  _371
REMARK  152  A    between atoms: _371  and  _372
REMARK  153  A    between atoms: _382  and  _384
REMARK  154  A    between atoms: _384  and  _385
REMARK  155  A    between atoms: _387  and  _389
REMARK  156  A    between atoms: _389  and  _390
REMARK  157  A    between atoms: _389  and  _392
REMARK  158  A    between atoms: _392  and  _393
REMARK  159  A    between atoms: _393  and  _394
REMARK  160  A    between atoms: _397  and  _399
REMARK  161  A    between atoms: _399  and  _400
REMARK  162  A    between atoms: _402  and  _404
REMARK  163  A    between atoms: _404  and  _405
REMARK  164  A    between atoms: _404  and  _407
REMARK  165  A    between atoms: _407  and  _408
REMARK  166  A    between atoms: _409  and  _411
REMARK  167  A    between atoms: _411  and  _412
REMARK  168  A    between atoms: _415  and  _417
REMARK  169  A    between atoms: _417  and  _418
REMARK  170  A    between atoms: _417  and  _420
REMARK  171  A    between atoms: _420  and  _421
REMARK  172  A    between atoms: _421  and  _422
REMARK  173  A    between atoms: _427  and  _429
REMARK  174  A    between atoms: _429  and  _430
REMARK  175  A    between atoms: _429  and  _432
REMARK  176  A    between atoms: _432  and  _433
REMARK  177  A    between atoms: _438  and  _440
REMARK  178  A    between atoms: _440  and  _441
REMARK  179  A    between atoms: _440  and  _443
REMARK  180  A    between atoms: _443  and  _444
REMARK  181  A    between atoms: _444  and  _445
REMARK  182  A    between atoms: _445  and  _446
REMARK  183  A    between atoms: _456  and  _457
REMARK  184  A    between atoms: _462  and  _464
REMARK  185  A    between atoms: _464  and  _465
REMARK  186  A    between atoms: _467  and  _469
REMARK  187  A    between atoms: _469  and  _470
REMARK  188  A    between atoms: _469  and  _472
REMARK  189  A    between atoms: _472  and  _473
REMARK  190  A    between atoms: _476  and  _478
REMARK  191  A    between atoms: _478  and  _479
REMARK  192  A    between atoms: _478  and  _481
REMARK  193  A    between atoms: _481  and  _482
REMARK  194  A    between atoms: _487  and  _488
REMARK  195  A    between atoms: _490  and  _492
REMARK  196  A    between atoms: _492  and  _493
REMARK  197  A    between atoms: _496  and  _497
REMARK  198  A    between atoms: _502  and  _504
REMARK  199  A    between atoms: _504  and  _505
REMARK  200  A    between atoms: _504  and  _507
REMARK  201  A    between atoms: _507  and  _508
REMARK  202  A    between atoms: _511  and  _513
REMARK  203  A    between atoms: _513  and  _514
REMARK  204  A    between atoms: _513  and  _516
REMARK  205  A    between atoms: _519  and  _521
REMARK  206  A    between atoms: _521  and  _522
REMARK  207  A    between atoms: _521  and  _524
REMARK  208  A    between atoms: _524  and  _525
REMARK  209  A    between atoms: _533  and  _534
REMARK  210  A    between atoms: _533  and  _536
REMARK  211  A    between atoms: _536  and  _537
REMARK  212  A    between atoms: _542  and  _543
REMARK  213  A    between atoms: _545  and  _547
REMARK  214  A    between atoms: _547  and  _548
REMARK  215  A    between atoms: _547  and  _550
REMARK  216  A    between atoms: _550  and  _551
REMARK  217  A    between atoms: _554  and  _556
REMARK  218  A    between atoms: _556  and  _557
REMARK  219  A    between atoms: _556  and  _559
REMARK  220  A    between atoms: _559  and  _560
REMARK  221  A    between atoms: _560  and  _561
REMARK  222  A    between atoms: _566  and  _568
REMARK  223  A    between atoms: _568  and  _569
REMARK  224  A    between atoms: _568  and  _571
REMARK  225  A    between atoms: _571  and  _572
REMARK                            x       y       z     vdW  Elec       q    Type
REMARK                         _______ _______ _______ _____ _____    ______ ____
ROOT
ATOM      1  C   PHE A   1     -17.081  47.015  -7.270  0.00  0.00    +0.242 C 
ATOM      2  N   TYR A   2     -16.529  47.823  -6.344  0.00  0.00    -0.282 N 
ATOM      3  H   TYR A   2     -16.935  47.803  -5.387  0.00  0.00    +0.155 HD
ATOM      4  CA  TYR A   2     -15.404  48.726  -6.579  0.00  0.00    +0.086 C 
ATOM      5  O   PHE A   1     -16.798  47.060  -8.468  0.00  0.00    -0.273 OA
ENDROOT
BRANCH   4   6
ATOM      6  C   TYR A   2     -14.406  48.738  -5.453  0.00  0.00    +0.256 C 
ATOM      7  N   THR A   3     -14.878  48.617  -4.172  0.00  0.00    -0.293 N 
ATOM      8  H   THR A   3     -15.907  48.638  -4.023  0.00  0.00    +0.150 HD
ATOM      9  O   TYR A   2     -13.207  48.772  -5.732  0.00  0.00    -0.269 OA
BRANCH   7  10
ATOM     10  CA  THR A   3     -13.998  48.457  -2.984  0.00  0.00    +0.164 C 
BRANCH  10  11
ATOM     11  C   THR A   3     -14.507  47.414  -1.990  0.00  0.00    +0.229 C 
ATOM     12  O   THR A   3     -15.721  47.205  -1.862  0.00  0.00    -0.286 OA
ENDBRANCH  10  11
BRANCH  10  13
ATOM     13  CB  THR A   3     -13.556  49.743  -2.248  0.00  0.00    +0.136 C 
ATOM     14  CG2 THR A   3     -13.149  50.876  -3.141  0.00  0.00    +0.034 C 
BRANCH  13  15
ATOM     15  OG1 THR A   3     -14.524  50.126  -1.304  0.00  0.00    -0.382 OA
ATOM     16  HG1 THR A   3     -14.226  50.950  -0.843  0.00  0.00    +0.210 HD
ENDBRANCH  13  15
ENDBRANCH  10  13
ENDBRANCH   7  10
ENDBRANCH   4   6
BRANCH   1  17
ATOM     17  CA  PHE A   1     -17.955  45.895  -6.722  0.00  0.00    +0.149 C 
BRANCH  17  18
ATOM     18  N   PHE A   1     -19.281  45.684  -7.284  0.00  0.00    -0.238 NA
ATOM     19  H   PHE A   1     -19.459  44.864  -7.899  0.00  0.00    +0.142 HD
ENDBRANCH  17  18
BRANCH  17  20
ATOM     20  CB  PHE A   1     -17.142  44.586  -6.701  0.00  0.00    +0.053 C 
BRANCH  20  21
ATOM     21  CG  PHE A   1     -15.745  44.791  -6.135  0.00  0.00    -0.020 A 
ATOM     22  CD2 PHE A   1     -15.525  44.782  -4.760  0.00  0.00    -0.004 A 
ATOM     23  CE2 PHE A   1     -14.251  44.987  -4.242  0.00  0.00    -0.000 A 
ATOM     24  CZ  PHE A   1     -13.197  45.256  -5.089  0.00  0.00    -0.000 A 
ATOM     25  CE1 PHE A   1     -13.389  45.264  -6.452  0.00  0.00    -0.000 A 
ATOM     26  CD1 PHE A   1     -14.663  45.046  -6.977  0.00  0.00    -0.004 A 
ENDBRANCH  20  21
ENDBRANCH  17  20
ENDBRANCH   1  17
BRANCH   4  27
ATOM     27  CB  TYR A   2     -15.677  50.069  -7.248  0.00  0.00    +0.072 C 
BRANCH  27  28
ATOM     28  CG  TYR A   2     -16.566  51.035  -6.515  0.00  0.00    -0.016 A 
ATOM     29  CD2 TYR A   2     -16.079  52.268  -6.094  0.00  0.00    -0.001 A 
ATOM     30  CE2 TYR A   2     -16.924  53.228  -5.536  0.00  0.00    +0.036 A 
ATOM     31  CZ  TYR A   2     -18.275  52.950  -5.380  0.00  0.00    +0.134 A 
ATOM     32  CE1 TYR A   2     -18.782  51.733  -5.803  0.00  0.00    +0.036 A 
ATOM     33  CD1 TYR A   2     -17.934  50.802  -6.403  0.00  0.00    -0.001 A 
BRANCH  31  34
ATOM     34  OH  TYR A   2     -19.111  53.871  -4.799  0.00  0.00    -0.506 OA
ATOM     35  HH  TYR A   2     -19.101  54.706  -5.331  0.00  0.00    +0.292 HD
ENDBRANCH  31  34
ENDBRANCH  27  28
ENDBRANCH   4  27
TORSDOF 12
REMARK  Name = ../refined-set-2016/4a6l/4a6l_pocket.pdb
REMARK  225 active torsions:
REMARK  status: ('A' for Active; 'I' for Inactive)
REMARK    1  A    between atoms: _1  and  _5
REMARK    2  A    between atoms: _5  and  _6
REMARK    3  A    between atoms: _5  and  _8
REMARK    4  A    between atoms: _8  and  _9
REMARK    5  A    between atoms: _12  and  _14
REMARK    6  A    between atoms: _14  and  _15
REMARK    7  A    between atoms: _14  and  _17
REMARK    8  A    between atoms: _20  and  _22
REMARK    9  A    between atoms: _22  and  _23
REMARK   10  A    between atoms: _22  and  _25
REMARK   11  A    between atoms: _25  and  _26
REMARK   12  A    between atoms: _31  and  _33
REMARK   13  A    between atoms: _33  and  _34
REMARK   14  A    between atoms: _37  and  _39
REMARK   15  A    between atoms: _39  and  _40
REMARK   16  A    between atoms: _39  and  _42
REMARK   17  A    between atoms: _42  and  _43
REMARK   18  A    between atoms: _43  and  _44
REMARK   19  A    between atoms: _49  and  _51
REMARK   20  A    between atoms: _51  and  _52
REMARK   21  A    between atoms: _51  and  _54
REMARK   22  A    between atoms: _57  and  _59
REMARK   23  A    between atoms: _59  and  _60
REMARK   24  A    between atoms: _59  and  _62
REMARK   25  A    between atoms: _62  and  _63
REMARK   26  A    between atoms: _66  and  _68
REMARK   27  A    between atoms: _68  and  _69
REMARK   28  A    between atoms: _68  and  _71
REMARK   29  A    between atoms: _71  and  _72
REMARK   30  A    between atoms: _77  and  _79
REMARK   31  A    between atoms: _79  and  _80
REMARK   32  A    between atoms: _79  and  _82
REMARK   33  A    between atoms: _82  and  _83
REMARK   34  A    between atoms: _86  and  _88
REMARK   35  A    between atoms: _88  and  _89
REMARK   36  A    between atoms: _88  and  _91
REMARK   37  A    between atoms: _91  and  _92
REMARK   38  A    between atoms: _95  and  _97
REMARK   39  A    between atoms: _97  and  _98
REMARK   40  A    between atoms: _97  and  _100
REMARK   41  A    between atoms: _100  and  _101
REMARK   42  A    between atoms: _101  and  _102
REMARK   43  A    between atoms: _102  and  _103
REMARK   44  A    between atoms: _103  and  _104
REMARK   45  A    between atoms: _108  and  _110
REMARK   46  A    between atoms: _110  and  _111
REMARK   47  A    between atoms: _110  and  _113
REMARK   48  A    between atoms: _113  and  _114
REMARK   49  A    between atoms: _119  and  _120
REMARK   50  A    between atoms: _122  and  _124
REMARK   51  A    between atoms: _124  and  _125
REMARK   52  A    between atoms: _124  and  _127
REMARK   53  A    between atoms: _127  and  _128
REMARK   54  A    between atoms: _133  and  _135
REMARK   55  A    between atoms: _135  and  _136
REMARK   56  A    between atoms: _135  and  _138
REMARK   57  A    between atoms: _138  and  _139
REMARK   58  A    between atoms: _142  and  _144
REMARK   59  A    between atoms: _144  and  _145
REMARK   60  A    between atoms: _147  and  _149
REMARK   61  A    between atoms: _149  and  _150
REMARK   62  A    between atoms: _153  and  _155
REMARK   63  A    between atoms: _155  and  _156
REMARK   64  A    between atoms: _155  and  _158
REMARK   65  A    between atoms: _158  and  _159
REMARK   66  A    between atoms: _164  and  _165
REMARK   67  A    between atoms: _167  and  _169
REMARK   68  A    between atoms: _169  and  _170
REMARK   69  A    between atoms: _169  and  _172
REMARK   70  A    between atoms: _172  and  _173
REMARK   71  A    between atoms: _176  and  _178
REMARK   72  A    between atoms: _178  and  _179
REMARK   73  A    between atoms: _178  and  _181
REMARK   74  A    between atoms: _184  and  _186
REMARK   75  A    between atoms: _186  and  _187
REMARK   76  A    between atoms: _186  and  _189
REMARK   77  A    between atoms: _189  and  _190
REMARK   78  A    between atoms: _190  and  _191
REMARK   79  A    between atoms: _191  and  _192
REMARK   80  A    between atoms: _201  and  _203
REMARK   81  A    between atoms: _203  and  _204
REMARK   82  A    between atoms: _203  and  _206
REMARK   83  A    between atoms: _206  and  _207
REMARK   84  A    between atoms: _210  and  _212
REMARK   85  A    between atoms: _212  and  _213
REMARK   86  A    between atoms: _212  and  _215
REMARK   87  A    between atoms: _218  and  _220
REMARK   88  A    between atoms: _220  and  _221
REMARK   89  A    between atoms: _220  and  _223
REMARK   90  A    between atoms: _223  and  _224
REMARK   91  A    between atoms: _224  and  _225
REMARK   92  A    between atoms: _225  and  _226
REMARK   93  A    between atoms: _235  and  _237
REMARK   94  A    between atoms: _237  and  _238
REMARK   95  A    between atoms: _241  and  _243
REMARK   96  A    between atoms: _243  and  _244
REMARK   97  A    between atoms: _246  and  _248
REMARK   98  A    between atoms: _248  and  _249
REMARK   99  A    between atoms: _248  and  _251
REMARK  100  A    between atoms: _251  and  _252
REMARK  101  A    between atoms: _257  and  _259
REMARK  102  A    between atoms: _259  and  _260
REMARK  103  A    between atoms: _259  and  _262
REMARK  104  A    between atoms: _262  and  _263
REMARK  105  A    between atoms: _263  and  _264
REMARK  106  A    between atoms: _264  and  _265
REMARK  107  A    between atoms: _274  and  _276
REMARK  108  A    between atoms: _276  and  _277
REMARK  109  A    between atoms: _276  and  _279
REMARK  110  A    between atoms: _279  and  _280
REMARK  111  A    between atoms: _283  and  _285
REMARK  112  A    between atoms: _285  and  _286
REMARK  113  A    between atoms: _285  and  _288
REMARK  114  A    between atoms: _288  and  _289
REMARK  115  A    between atoms: _291  and  _293
REMARK  116  A    between atoms: _293  and  _294
REMARK  117  A    between atoms: _293  and  _296
REMARK  118  A    between atoms: _296  and  _297
REMARK  119  A    between atoms: _297  and  _408
REMARK  120  A    between atoms: _298  and  _300
REMARK  121  A    between atoms: _300  and  _301
REMARK  122  A    between atoms: _300  and  _303
REMARK  123  A    between atoms: _303  and  _304
REMARK  124  A    between atoms: _304  and  _305
REMARK  125  A    between atoms: _310  and  _312
REMARK  126  A    between atoms: _312  and  _313
REMARK  127  A    between atoms: _315  and  _317
REMARK  128  A    between atoms: _317  and  _318
REMARK  129  A    between atoms: _317  and  _320
REMARK  130  A    between atoms: _320  and  _321
REMARK  131  A    between atoms: _324  and  _326
REMARK  132  A    between atoms: _326  and  _327
REMARK  133  A    between atoms: _326  and  _329
REMARK  134  A    between atoms: _329  and  _330
REMARK  135  A    between atoms: _332  and  _334
REMARK  136  A    between atoms: _334  and  _335
REMARK  137  A    between atoms: _337  and  _339
REMARK  138  A    between atoms: _339  and  _340
REMARK  139  A    between atoms: _342  and  _344
REMARK  140  A    between atoms: _344  and  _345
REMARK  141  A    between atoms: _344  and  _347
REMARK  142  A    between atoms: _350  and  _352
REMARK  143  A    between atoms: _352  and  _353
REMARK  144  A    between atoms: _352  and  _355
REMARK  145  A    between atoms: _358  and  _360
REMARK  146  A    between atoms: _360  and  _361
REMARK  147  A    between atoms: _360  and  _363
REMARK  148  A    between atoms: _363  and  _364
REMARK  149  A    between atoms: _366  and  _368
REMARK  150  A    between atoms: _368  and  _369
REMARK  151  A    between atoms: _368  and  _371
REMARK  152  A    between atoms: _371  and  _372
REMARK  153  A    between atoms: _382  and  _384
REMARK  154  A    between atoms: _384  and  _385
REMARK  155  A    between atoms: _387  and  _389
REMARK  156  A    between atoms: _389  and  _390
REMARK  157  A    between atoms: _389  and  _392
REMARK  158  A    between atoms: _392  and  _393
REMARK  159  A    between atoms: _393  and  _394
REMARK  160  A    between atoms: _397  and  _399
REMARK  161  A    between atoms: _399  and  _400
REMARK  162  A    between atoms: _402  and  _404
REMARK  163  A    between atoms: _404  and  _405
REMARK  164  A    between atoms: _404  and  _407
REMARK  165  A    between atoms: _407  and  _408
REMARK  166  A    between atoms: _409  and  _411
REMARK  167  A    between atoms: _411  and  _412
REMARK  168  A    between atoms: _415  and  _417
REMARK  169  A    between atoms: _417  and  _418
REMARK  170  A    between atoms: _417  and  _420
REMARK  171  A    between atoms: _420  and  _421
REMARK  172  A    between atoms: _421  and  _422
REMARK  173  A    between atoms: _427  and  _429
REMARK  174  A    between atoms: _429  and  _430
REMARK  175  A    between atoms: _429  and  _432
REMARK  176  A    between atoms: _432  and  _433
REMARK  177  A    between atoms: _438  and  _440
REMARK  178  A    between atoms: _440  and  _441
REMARK  179  A    between atoms: _440  and  _443
REMARK  180  A    between atoms: _443  and  _444
REMARK  181  A    between atoms: _444  and  _445
REMARK  182  A    between atoms: _445  and  _446
REMARK  183  A    between atoms: _456  and  _457
REMARK  184  A    between atoms: _462  and  _464
REMARK  185  A    between atoms: _464  and  _465
REMARK  186  A    between atoms: _467  and  _469
REMARK  187  A    between atoms: _469  and  _470
REMARK  188  A    between atoms: _469  and  _472
REMARK  189  A    between atoms: _472  and  _473
REMARK  190  A    between atoms: _476  and  _478
REMARK  191  A    between atoms: _478  and  _479
REMARK  192  A    between atoms: _478  and  _481
REMARK  193  A    between atoms: _481  and  _482
REMARK  194  A    between atoms: _487  and  _488
REMARK  195  A    between atoms: _490  and  _492
REMARK  196  A    between atoms: _492  and  _493
REMARK  197  A    between atoms: _496  and  _497
REMARK  198  A    between atoms: _502  and  _504
REMARK  199  A    between atoms: _504  and  _505
REMARK  200  A    between atoms: _504  and  _507
REMARK  201  A    between atoms: _507  and  _508
REMARK  202  A    between atoms: _511  and  _513
REMARK  203  A    between atoms: _513  and  _514
REMARK  204  A    between atoms: _513  and  _516
REMARK  205  A    between atoms: _519  and  _521
REMARK  206  A    between atoms: _521  and  _522
REMARK  207  A    between atoms: _521  and  _524
REMARK  208  A    between atoms: _524  and  _525
REMARK  209  A    between atoms: _533  and  _534
REMARK  210  A    between atoms: _533  and  _536
REMARK  211  A    between atoms: _536  and  _537
REMARK  212  A    between atoms: _542  and  _543
REMARK  213  A    between atoms: _545  and  _547
REMARK  214  A    between atoms: _547  and  _548
REMARK  215  A    between atoms: _547  and  _550
REMARK  216  A    between atoms: _550  and  _551
REMARK  217  A    between atoms: _554  and  _556
REMARK  218  A    between atoms: _556  and  _557
REMARK  219  A    between atoms: _556  and  _559
REMARK  220  A    between atoms: _559  and  _560
REMARK  221  A    between atoms: _560  and  _561
REMARK  222  A    between atoms: _566  and  _568
REMARK  223  A    between atoms: _568  and  _569
REMARK  224  A    between atoms: _568  and  _571
REMARK  225  A    between atoms: _571  and  _572
REMARK                            x       y       z     vdW  Elec       q    Type
REMARK                         _______ _______ _______ _____ _____    ______ ____
ROOT
ATOM      1  C   GLN A   1     -16.654  48.718   1.896  0.00  0.00    +0.238 C 
ATOM      2  O   GLN A   1     -17.512  48.757   2.773  0.00  0.00    -0.274 OA
ATOM      3  N   ILE A   2     -16.937  48.920   0.592  0.00  0.00    -0.298 N 
ATOM      4  H   ILE A   2     -16.166  48.921  -0.105  0.00  0.00    +0.150 HD
ENDROOT
BRANCH   1   5
ATOM      5  CA  GLN A   1     -15.212  48.394   2.282  0.00  0.00    +0.145 C 
BRANCH   5   6
ATOM      6  N   GLN A   1     -14.510  47.685   1.201  0.00  0.00    -0.238 NA
ATOM      7  H   GLN A   1     -13.785  48.196   0.657  0.00  0.00    +0.142 HD
ENDBRANCH   5   6
BRANCH   5   8
ATOM      8  CB  GLN A   1     -14.463  49.643   2.756  0.00  0.00    +0.036 C 
BRANCH   8   9
ATOM      9  CG  GLN A   1     -13.124  49.343   3.441  0.00  0.00    +0.087 C 
BRANCH   9  10
ATOM     10  CD  GLN A   1     -12.026  48.962   2.475  0.00  0.00    +0.219 C 
ATOM     11  NE2 GLN A   1     -11.160  48.048   2.888  0.00  0.00    -0.329 N 
ATOM     12 HE21 GLN A   1     -11.201  47.698   3.866  0.00  0.00    +0.145 HD
ATOM     13 HE22 GLN A   1     -10.440  47.681   2.234  0.00  0.00    +0.145 HD
ATOM     14  OE1 GLN A   1     -12.007  49.401   1.320  0.00  0.00    -0.275 OA
ENDBRANCH   9  10
ENDBRANCH   8   9
ENDBRANCH   5   8
ENDBRANCH   1   5
BRANCH   3  15
ATOM     15  CA  ILE A   2     -18.312  49.138   0.145  0.00  0.00    +0.137 C 
BRANCH  15  16
ATOM     16  C   ILE A   2     -19.037  47.781   0.159  0.00  0.00    +0.227 C 
ATOM     17  O   ILE A   2     -20.137  47.674   0.691  0.00  0.00    -0.286 OA
ENDBRANCH  15  16
BRANCH  15  18
ATOM     18  CB  ILE A   2     -18.393  49.897  -1.202  0.00  0.00    +0.026 C 
ATOM     19  CG2 ILE A   2     -19.836  49.881  -1.775  0.00  0.00    +0.002 C 
BRANCH  18  20
ATOM     20  CG1 ILE A   2     -17.900  51.354  -1.014  0.00  0.00    +0.002 C 
ATOM     21  CD1 ILE A   2     -17.307  52.035  -2.184  0.00  0.00    +0.000 C 
ENDBRANCH  18  20
ENDBRANCH  15  18
ENDBRANCH   3  15
TORSDOF 9
REMARK  Name = ../refined-set-2016/4a6l/4a6l_pocket.pdb
REMARK  225 active torsions:
REMARK  status: ('A' for Active; 'I' for Inactive)
REMARK    1  A    between atoms: _1  and  _5
REMARK    2  A    between atoms: _5  and  _6
REMARK    3  A    between atoms: _5  and  _8
REMARK    4  A    between atoms: _8  and  _9
REMARK    5  A    between atoms: _12  and  _14
REMARK    6  A    between atoms: _14  and  _15
REMARK    7  A    between atoms: _14  and  _17
REMARK    8  A    between atoms: _20  and  _22
REMARK    9  A    between atoms: _22  and  _23
REMARK   10  A    between atoms: _22  and  _25
REMARK   11  A    between atoms: _25  and  _26
REMARK   12  A    between atoms: _31  and  _33
REMARK   13  A    between atoms: _33  and  _34
REMARK   14  A    between atoms: _37  and  _39
REMARK   15  A    between atoms: _39  and  _40
REMARK   16  A    between atoms: _39  and  _42
REMARK   17  A    between atoms: _42  and  _43
REMARK   18  A    between atoms: _43  and  _44
REMARK   19  A    between atoms: _49  and  _51
REMARK   20  A    between atoms: _51  and  _52
REMARK   21  A    between atoms: _51  and  _54
REMARK   22  A    between atoms: _57  and  _59
REMARK   23  A    between atoms: _59  and  _60
REMARK   24  A    between atoms: _59  and  _62
REMARK   25  A    between atoms: _62  and  _63
REMARK   26  A    between atoms: _66  and  _68
REMARK   27  A    between atoms: _68  and  _69
REMARK   28  A    between atoms: _68  and  _71
REMARK   29  A    between atoms: _71  and  _72
REMARK   30  A    between atoms: _77  and  _79
REMARK   31  A    between atoms: _79  and  _80
REMARK   32  A    between atoms: _79  and  _82
REMARK   33  A    between atoms: _82  and  _83
REMARK   34  A    between atoms: _86  and  _88
REMARK   35  A    between atoms: _88  and  _89
REMARK   36  A    between atoms: _88  and  _91
REMARK   37  A    between atoms: _91  and  _92
REMARK   38  A    between atoms: _95  and  _97
REMARK   39  A    between atoms: _97  and  _98
REMARK   40  A    between atoms: _97  and  _100
REMARK   41  A    between atoms: _100  and  _101
REMARK   42  A    between atoms: _101  and  _102
REMARK   43  A    between atoms: _102  and  _103
REMARK   44  A    between atoms: _103  and  _104
REMARK   45  A    between atoms: _108  and  _110
REMARK   46  A    between atoms: _110  and  _111
REMARK   47  A    between atoms: _110  and  _113
REMARK   48  A    between atoms: _113  and  _114
REMARK   49  A    between atoms: _119  and  _120
REMARK   50  A    between atoms: _122  and  _124
REMARK   51  A    between atoms: _124  and  _125
REMARK   52  A    between atoms: _124  and  _127
REMARK   53  A    between atoms: _127  and  _128
REMARK   54  A    between atoms: _133  and  _135
REMARK   55  A    between atoms: _135  and  _136
REMARK   56  A    between atoms: _135  and  _138
REMARK   57  A    between atoms: _138  and  _139
REMARK   58  A    between atoms: _142  and  _144
REMARK   59  A    between atoms: _144  and  _145
REMARK   60  A    between atoms: _147  and  _149
REMARK   61  A    between atoms: _149  and  _150
REMARK   62  A    between atoms: _153  and  _155
REMARK   63  A    between atoms: _155  and  _156
REMARK   64  A    between atoms: _155  and  _158
REMARK   65  A    between atoms: _158  and  _159
REMARK   66  A    between atoms: _164  and  _165
REMARK   67  A    between atoms: _167  and  _169
REMARK   68  A    between atoms: _169  and  _170
REMARK   69  A    between atoms: _169  and  _172
REMARK   70  A    between atoms: _172  and  _173
REMARK   71  A    between atoms: _176  and  _178
REMARK   72  A    between atoms: _178  and  _179
REMARK   73  A    between atoms: _178  and  _181
REMARK   74  A    between atoms: _184  and  _186
REMARK   75  A    between atoms: _186  and  _187
REMARK   76  A    between atoms: _186  and  _189
REMARK   77  A    between atoms: _189  and  _190
REMARK   78  A    between atoms: _190  and  _191
REMARK   79  A    between atoms: _191  and  _192
REMARK   80  A    between atoms: _201  and  _203
REMARK   81  A    between atoms: _203  and  _204
REMARK   82  A    between atoms: _203  and  _206
REMARK   83  A    between atoms: _206  and  _207
REMARK   84  A    between atoms: _210  and  _212
REMARK   85  A    between atoms: _212  and  _213
REMARK   86  A    between atoms: _212  and  _215
REMARK   87  A    between atoms: _218  and  _220
REMARK   88  A    between atoms: _220  and  _221
REMARK   89  A    between atoms: _220  and  _223
REMARK   90  A    between atoms: _223  and  _224
REMARK   91  A    between atoms: _224  and  _225
REMARK   92  A    between atoms: _225  and  _226
REMARK   93  A    between atoms: _235  and  _237
REMARK   94  A    between atoms: _237  and  _238
REMARK   95  A    between atoms: _241  and  _243
REMARK   96  A    between atoms: _243  and  _244
REMARK   97  A    between atoms: _246  and  _248
REMARK   98  A    between atoms: _248  and  _249
REMARK   99  A    between atoms: _248  and  _251
REMARK  100  A    between atoms: _251  and  _252
REMARK  101  A    between atoms: _257  and  _259
REMARK  102  A    between atoms: _259  and  _260
REMARK  103  A    between atoms: _259  and  _262
REMARK  104  A    between atoms: _262  and  _263
REMARK  105  A    between atoms: _263  and  _264
REMARK  106  A    between atoms: _264  and  _265
REMARK  107  A    between atoms: _274  and  _276
REMARK  108  A    between atoms: _276  and  _277
REMARK  109  A    between atoms: _276  and  _279
REMARK  110  A    between atoms: _279  and  _280
REMARK  111  A    between atoms: _283  and  _285
REMARK  112  A    between atoms: _285  and  _286
REMARK  113  A    between atoms: _285  and  _288
REMARK  114  A    between atoms: _288  and  _289
REMARK  115  A    between atoms: _291  and  _293
REMARK  116  A    between atoms: _293  and  _294
REMARK  117  A    between atoms: _293  and  _296
REMARK  118  A    between atoms: _296  and  _297
REMARK  119  A    between atoms: _297  and  _408
REMARK  120  A    between atoms: _298  and  _300
REMARK  121  A    between atoms: _300  and  _301
REMARK  122  A    between atoms: _300  and  _303
REMARK  123  A    between atoms: _303  and  _304
REMARK  124  A    between atoms: _304  and  _305
REMARK  125  A    between atoms: _310  and  _312
REMARK  126  A    between atoms: _312  and  _313
REMARK  127  A    between atoms: _315  and  _317
REMARK  128  A    between atoms: _317  and  _318
REMARK  129  A    between atoms: _317  and  _320
REMARK  130  A    between atoms: _320  and  _321
REMARK  131  A    between atoms: _324  and  _326
REMARK  132  A    between atoms: _326  and  _327
REMARK  133  A    between atoms: _326  and  _329
REMARK  134  A    between atoms: _329  and  _330
REMARK  135  A    between atoms: _332  and  _334
REMARK  136  A    between atoms: _334  and  _335
REMARK  137  A    between atoms: _337  and  _339
REMARK  138  A    between atoms: _339  and  _340
REMARK  139  A    between atoms: _342  and  _344
REMARK  140  A    between atoms: _344  and  _345
REMARK  141  A    between atoms: _344  and  _347
REMARK  142  A    between atoms: _350  and  _352
REMARK  143  A    between atoms: _352  and  _353
REMARK  144  A    between atoms: _352  and  _355
REMARK  145  A    between atoms: _358  and  _360
REMARK  146  A    between atoms: _360  and  _361
REMARK  147  A    between atoms: _360  and  _363
REMARK  148  A    between atoms: _363  and  _364
REMARK  149  A    between atoms: _366  and  _368
REMARK  150  A    between atoms: _368  and  _369
REMARK  151  A    between atoms: _368  and  _371
REMARK  152  A    between atoms: _371  and  _372
REMARK  153  A    between atoms: _382  and  _384
REMARK  154  A    between atoms: _384  and  _385
REMARK  155  A    between atoms: _387  and  _389
REMARK  156  A    between atoms: _389  and  _390
REMARK  157  A    between atoms: _389  and  _392
REMARK  158  A    between atoms: _392  and  _393
REMARK  159  A    between atoms: _393  and  _394
REMARK  160  A    between atoms: _397  and  _399
REMARK  161  A    between atoms: _399  and  _400
REMARK  162  A    between atoms: _402  and  _404
REMARK  163  A    between atoms: _404  and  _405
REMARK  164  A    between atoms: _404  and  _407
REMARK  165  A    between atoms: _407  and  _408
REMARK  166  A    between atoms: _409  and  _411
REMARK  167  A    between atoms: _411  and  _412
REMARK  168  A    between atoms: _415  and  _417
REMARK  169  A    between atoms: _417  and  _418
REMARK  170  A    between atoms: _417  and  _420
REMARK  171  A    between atoms: _420  and  _421
REMARK  172  A    between atoms: _421  and  _422
REMARK  173  A    between atoms: _427  and  _429
REMARK  174  A    between atoms: _429  and  _430
REMARK  175  A    between atoms: _429  and  _432
REMARK  176  A    between atoms: _432  and  _433
REMARK  177  A    between atoms: _438  and  _440
REMARK  178  A    between atoms: _440  and  _441
REMARK  179  A    between atoms: _440  and  _443
REMARK  180  A    between atoms: _443  and  _444
REMARK  181  A    between atoms: _444  and  _445
REMARK  182  A    between atoms: _445  and  _446
REMARK  183  A    between atoms: _456  and  _457
REMARK  184  A    between atoms: _462  and  _464
REMARK  185  A    between atoms: _464  and  _465
REMARK  186  A    between atoms: _467  and  _469
REMARK  187  A    between atoms: _469  and  _470
REMARK  188  A    between atoms: _469  and  _472
REMARK  189  A    between atoms: _472  and  _473
REMARK  190  A    between atoms: _476  and  _478
REMARK  191  A    between atoms: _478  and  _479
REMARK  192  A    between atoms: _478  and  _481
REMARK  193  A    between atoms: _481  and  _482
REMARK  194  A    between atoms: _487  and  _488
REMARK  195  A    between atoms: _490  and  _492
REMARK  196  A    between atoms: _492  and  _493
REMARK  197  A    between atoms: _496  and  _497
REMARK  198  A    between atoms: _502  and  _504
REMARK  199  A    between atoms: _504  and  _505
REMARK  200  A    between atoms: _504  and  _507
REMARK  201  A    between atoms: _507  and  _508
REMARK  202  A    between atoms: _511  and  _513
REMARK  203  A    between atoms: _513  and  _514
REMARK  204  A    between atoms: _513  and  _516
REMARK  205  A    between atoms: _519  and  _521
REMARK  206  A    between atoms: _521  and  _522
REMARK  207  A    between atoms: _521  and  _524
REMARK  208  A    between atoms: _524  and  _525
REMARK  209  A    between atoms: _533  and  _534
REMARK  210  A    between atoms: _533  and  _536
REMARK  211  A    between atoms: _536  and  _537
REMARK  212  A    between atoms: _542  and  _543
REMARK  213  A    between atoms: _545  and  _547
REMARK  214  A    between atoms: _547  and  _548
REMARK  215  A    between atoms: _547  and  _550
REMARK  216  A    between atoms: _550  and  _551
REMARK  217  A    between atoms: _554  and  _556
REMARK  218  A    between atoms: _556  and  _557
REMARK  219  A    between atoms: _556  and  _559
REMARK  220  A    between atoms: _559  and  _560
REMARK  221  A    between atoms: _560  and  _561
REMARK  222  A    between atoms: _566  and  _568
REMARK  223  A    between atoms: _568  and  _569
REMARK  224  A    between atoms: _568  and  _571
REMARK  225  A    between atoms: _571  and  _572
REMARK                            x       y       z     vdW  Elec       q    Type
REMARK                         _______ _______ _______ _____ _____    ______ ____
ROOT
ATOM      1  O   HOH     1      -7.107  57.083   1.684  0.00  0.00    +0.000 OA
ENDROOT
TORSDOF 0
REMARK  Name = ../refined-set-2016/4a6l/4a6l_pocket.pdb
REMARK  225 active torsions:
REMARK  status: ('A' for Active; 'I' for Inactive)
REMARK    1  A    between atoms: _1  and  _5
REMARK    2  A    between atoms: _5  and  _6
REMARK    3  A    between atoms: _5  and  _8
REMARK    4  A    between atoms: _8  and  _9
REMARK    5  A    between atoms: _12  and  _14
REMARK    6  A    between atoms: _14  and  _15
REMARK    7  A    between atoms: _14  and  _17
REMARK    8  A    between atoms: _20  and  _22
REMARK    9  A    between atoms: _22  and  _23
REMARK   10  A    between atoms: _22  and  _25
REMARK   11  A    between atoms: _25  and  _26
REMARK   12  A    between atoms: _31  and  _33
REMARK   13  A    between atoms: _33  and  _34
REMARK   14  A    between atoms: _37  and  _39
REMARK   15  A    between atoms: _39  and  _40
REMARK   16  A    between atoms: _39  and  _42
REMARK   17  A    between atoms: _42  and  _43
REMARK   18  A    between atoms: _43  and  _44
REMARK   19  A    between atoms: _49  and  _51
REMARK   20  A    between atoms: _51  and  _52
REMARK   21  A    between atoms: _51  and  _54
REMARK   22  A    between atoms: _57  and  _59
REMARK   23  A    between atoms: _59  and  _60
REMARK   24  A    between atoms: _59  and  _62
REMARK   25  A    between atoms: _62  and  _63
REMARK   26  A    between atoms: _66  and  _68
REMARK   27  A    between atoms: _68  and  _69
REMARK   28  A    between atoms: _68  and  _71
REMARK   29  A    between atoms: _71  and  _72
REMARK   30  A    between atoms: _77  and  _79
REMARK   31  A    between atoms: _79  and  _80
REMARK   32  A    between atoms: _79  and  _82
REMARK   33  A    between atoms: _82  and  _83
REMARK   34  A    between atoms: _86  and  _88
REMARK   35  A    between atoms: _88  and  _89
REMARK   36  A    between atoms: _88  and  _91
REMARK   37  A    between atoms: _91  and  _92
REMARK   38  A    between atoms: _95  and  _97
REMARK   39  A    between atoms: _97  and  _98
REMARK   40  A    between atoms: _97  and  _100
REMARK   41  A    between atoms: _100  and  _101
REMARK   42  A    between atoms: _101  and  _102
REMARK   43  A    between atoms: _102  and  _103
REMARK   44  A    between atoms: _103  and  _104
REMARK   45  A    between atoms: _108  and  _110
REMARK   46  A    between atoms: _110  and  _111
REMARK   47  A    between atoms: _110  and  _113
REMARK   48  A    between atoms: _113  and  _114
REMARK   49  A    between atoms: _119  and  _120
REMARK   50  A    between atoms: _122  and  _124
REMARK   51  A    between atoms: _124  and  _125
REMARK   52  A    between atoms: _124  and  _127
REMARK   53  A    between atoms: _127  and  _128
REMARK   54  A    between atoms: _133  and  _135
REMARK   55  A    between atoms: _135  and  _136
REMARK   56  A    between atoms: _135  and  _138
REMARK   57  A    between atoms: _138  and  _139
REMARK   58  A    between atoms: _142  and  _144
REMARK   59  A    between atoms: _144  and  _145
REMARK   60  A    between atoms: _147  and  _149
REMARK   61  A    between atoms: _149  and  _150
REMARK   62  A    between atoms: _153  and  _155
REMARK   63  A    between atoms: _155  and  _156
REMARK   64  A    between atoms: _155  and  _158
REMARK   65  A    between atoms: _158  and  _159
REMARK   66  A    between atoms: _164  and  _165
REMARK   67  A    between atoms: _167  and  _169
REMARK   68  A    between atoms: _169  and  _170
REMARK   69  A    between atoms: _169  and  _172
REMARK   70  A    between atoms: _172  and  _173
REMARK   71  A    between atoms: _176  and  _178
REMARK   72  A    between atoms: _178  and  _179
REMARK   73  A    between atoms: _178  and  _181
REMARK   74  A    between atoms: _184  and  _186
REMARK   75  A    between atoms: _186  and  _187
REMARK   76  A    between atoms: _186  and  _189
REMARK   77  A    between atoms: _189  and  _190
REMARK   78  A    between atoms: _190  and  _191
REMARK   79  A    between atoms: _191  and  _192
REMARK   80  A    between atoms: _201  and  _203
REMARK   81  A    between atoms: _203  and  _204
REMARK   82  A    between atoms: _203  and  _206
REMARK   83  A    between atoms: _206  and  _207
REMARK   84  A    between atoms: _210  and  _212
REMARK   85  A    between atoms: _212  and  _213
REMARK   86  A    between atoms: _212  and  _215
REMARK   87  A    between atoms: _218  and  _220
REMARK   88  A    between atoms: _220  and  _221
REMARK   89  A    between atoms: _220  and  _223
REMARK   90  A    between atoms: _223  and  _224
REMARK   91  A    between atoms: _224  and  _225
REMARK   92  A    between atoms: _225  and  _226
REMARK   93  A    between atoms: _235  and  _237
REMARK   94  A    between atoms: _237  and  _238
REMARK   95  A    between atoms: _241  and  _243
REMARK   96  A    between atoms: _243  and  _244
REMARK   97  A    between atoms: _246  and  _248
REMARK   98  A    between atoms: _248  and  _249
REMARK   99  A    between atoms: _248  and  _251
REMARK  100  A    between atoms: _251  and  _252
REMARK  101  A    between atoms: _257  and  _259
REMARK  102  A    between atoms: _259  and  _260
REMARK  103  A    between atoms: _259  and  _262
REMARK  104  A    between atoms: _262  and  _263
REMARK  105  A    between atoms: _263  and  _264
REMARK  106  A    between atoms: _264  and  _265
REMARK  107  A    between atoms: _274  and  _276
REMARK  108  A    between atoms: _276  and  _277
REMARK  109  A    between atoms: _276  and  _279
REMARK  110  A    between atoms: _279  and  _280
REMARK  111  A    between atoms: _283  and  _285
REMARK  112  A    between atoms: _285  and  _286
REMARK  113  A    between atoms: _285  and  _288
REMARK  114  A    between atoms: _288  and  _289
REMARK  115  A    between atoms: _291  and  _293
REMARK  116  A    between atoms: _293  and  _294
REMARK  117  A    between atoms: _293  and  _296
REMARK  118  A    between atoms: _296  and  _297
REMARK  119  A    between atoms: _297  and  _408
REMARK  120  A    between atoms: _298  and  _300
REMARK  121  A    between atoms: _300  and  _301
REMARK  122  A    between atoms: _300  and  _303
REMARK  123  A    between atoms: _303  and  _304
REMARK  124  A    between atoms: _304  and  _305
REMARK  125  A    between atoms: _310  and  _312
REMARK  126  A    between atoms: _312  and  _313
REMARK  127  A    between atoms: _315  and  _317
REMARK  128  A    between atoms: _317  and  _318
REMARK  129  A    between atoms: _317  and  _320
REMARK  130  A    between atoms: _320  and  _321
REMARK  131  A    between atoms: _324  and  _326
REMARK  132  A    between atoms: _326  and  _327
REMARK  133  A    between atoms: _326  and  _329
REMARK  134  A    between atoms: _329  and  _330
REMARK  135  A    between atoms: _332  and  _334
REMARK  136  A    between atoms: _334  and  _335
REMARK  137  A    between atoms: _337  and  _339
REMARK  138  A    between atoms: _339  and  _340
REMARK  139  A    between atoms: _342  and  _344
REMARK  140  A    between atoms: _344  and  _345
REMARK  141  A    between atoms: _344  and  _347
REMARK  142  A    between atoms: _350  and  _352
REMARK  143  A    between atoms: _352  and  _353
REMARK  144  A    between atoms: _352  and  _355
REMARK  145  A    between atoms: _358  and  _360
REMARK  146  A    between atoms: _360  and  _361
REMARK  147  A    between atoms: _360  and  _363
REMARK  148  A    between atoms: _363  and  _364
REMARK  149  A    between atoms: _366  and  _368
REMARK  150  A    between atoms: _368  and  _369
REMARK  151  A    between atoms: _368  and  _371
REMARK  152  A    between atoms: _371  and  _372
REMARK  153  A    between atoms: _382  and  _384
REMARK  154  A    between atoms: _384  and  _385
REMARK  155  A    between atoms: _387  and  _389
REMARK  156  A    between atoms: _389  and  _390
REMARK  157  A    between atoms: _389  and  _392
REMARK  158  A    between atoms: _392  and  _393
REMARK  159  A    between atoms: _393  and  _394
REMARK  160  A    between atoms: _397  and  _399
REMARK  161  A    between atoms: _399  and  _400
REMARK  162  A    between atoms: _402  and  _404
REMARK  163  A    between atoms: _404  and  _405
REMARK  164  A    between atoms: _404  and  _407
REMARK  165  A    between atoms: _407  and  _408
REMARK  166  A    between atoms: _409  and  _411
REMARK  167  A    between atoms: _411  and  _412
REMARK  168  A    between atoms: _415  and  _417
REMARK  169  A    between atoms: _417  and  _418
REMARK  170  A    between atoms: _417  and  _420
REMARK  171  A    between atoms: _420  and  _421
REMARK  172  A    between atoms: _421  and  _422
REMARK  173  A    between atoms: _427  and  _429
REMARK  174  A    between atoms: _429  and  _430
REMARK  175  A    between atoms: _429  and  _432
REMARK  176  A    between atoms: _432  and  _433
REMARK  177  A    between atoms: _438  and  _440
REMARK  178  A    between atoms: _440  and  _441
REMARK  179  A    between atoms: _440  and  _443
REMARK  180  A    between atoms: _443  and  _444
REMARK  181  A    between atoms: _444  and  _445
REMARK  182  A    between atoms: _445  and  _446
REMARK  183  A    between atoms: _456  and  _457
REMARK  184  A    between atoms: _462  and  _464
REMARK  185  A    between atoms: _464  and  _465
REMARK  186  A    between atoms: _467  and  _469
REMARK  187  A    between atoms: _469  and  _470
REMARK  188  A    between atoms: _469  and  _472
REMARK  189  A    between atoms: _472  and  _473
REMARK  190  A    between atoms: _476  and  _478
REMARK  191  A    between atoms: _478  and  _479
REMARK  192  A    between atoms: _478  and  _481
REMARK  193  A    between atoms: _481  and  _482
REMARK  194  A    between atoms: _487  and  _488
REMARK  195  A    between atoms: _490  and  _492
REMARK  196  A    between atoms: _492  and  _493
REMARK  197  A    between atoms: _496  and  _497
REMARK  198  A    between atoms: _502  and  _504
REMARK  199  A    between atoms: _504  and  _505
REMARK  200  A    between atoms: _504  and  _507
REMARK  201  A    between atoms: _507  and  _508
REMARK  202  A    between atoms: _511  and  _513
REMARK  203  A    between atoms: _513  and  _514
REMARK  204  A    between atoms: _513  and  _516
REMARK  205  A    between atoms: _519  and  _521
REMARK  206  A    between atoms: _521  and  _522
REMARK  207  A    between atoms: _521  and  _524
REMARK  208  A    between atoms: _524  and  _525
REMARK  209  A    between atoms: _533  and  _534
REMARK  210  A    between atoms: _533  and  _536
REMARK  211  A    between atoms: _536  and  _537
REMARK  212  A    between atoms: _542  and  _543
REMARK  213  A    between atoms: _545  and  _547
REMARK  214  A    between atoms: _547  and  _548
REMARK  215  A    between atoms: _547  and  _550
REMARK  216  A    between atoms: _550  and  _551
REMARK  217  A    between atoms: _554  and  _556
REMARK  218  A    between atoms: _556  and  _557
REMARK  219  A    between atoms: _556  and  _559
REMARK  220  A    between atoms: _559  and  _560
REMARK  221  A    between atoms: _560  and  _561
REMARK  222  A    between atoms: _566  and  _568
REMARK  223  A    between atoms: _568  and  _569
REMARK  224  A    between atoms: _568  and  _571
REMARK  225  A    between atoms: _571  and  _572
REMARK                            x       y       z     vdW  Elec       q    Type
REMARK                         _______ _______ _______ _____ _____    ______ ____
ROOT
ATOM      1  O   HOH     1      -5.284  56.534   4.324  0.00  0.00    +0.000 OA
ENDROOT
TORSDOF 0
REMARK  Name = ../refined-set-2016/4a6l/4a6l_pocket.pdb
REMARK  225 active torsions:
REMARK  status: ('A' for Active; 'I' for Inactive)
REMARK    1  A    between atoms: _1  and  _5
REMARK    2  A    between atoms: _5  and  _6
REMARK    3  A    between atoms: _5  and  _8
REMARK    4  A    between atoms: _8  and  _9
REMARK    5  A    between atoms: _12  and  _14
REMARK    6  A    between atoms: _14  and  _15
REMARK    7  A    between atoms: _14  and  _17
REMARK    8  A    between atoms: _20  and  _22
REMARK    9  A    between atoms: _22  and  _23
REMARK   10  A    between atoms: _22  and  _25
REMARK   11  A    between atoms: _25  and  _26
REMARK   12  A    between atoms: _31  and  _33
REMARK   13  A    between atoms: _33  and  _34
REMARK   14  A    between atoms: _37  and  _39
REMARK   15  A    between atoms: _39  and  _40
REMARK   16  A    between atoms: _39  and  _42
REMARK   17  A    between atoms: _42  and  _43
REMARK   18  A    between atoms: _43  and  _44
REMARK   19  A    between atoms: _49  and  _51
REMARK   20  A    between atoms: _51  and  _52
REMARK   21  A    between atoms: _51  and  _54
REMARK   22  A    between atoms: _57  and  _59
REMARK   23  A    between atoms: _59  and  _60
REMARK   24  A    between atoms: _59  and  _62
REMARK   25  A    between atoms: _62  and  _63
REMARK   26  A    between atoms: _66  and  _68
REMARK   27  A    between atoms: _68  and  _69
REMARK   28  A    between atoms: _68  and  _71
REMARK   29  A    between atoms: _71  and  _72
REMARK   30  A    between atoms: _77  and  _79
REMARK   31  A    between atoms: _79  and  _80
REMARK   32  A    between atoms: _79  and  _82
REMARK   33  A    between atoms: _82  and  _83
REMARK   34  A    between atoms: _86  and  _88
REMARK   35  A    between atoms: _88  and  _89
REMARK   36  A    between atoms: _88  and  _91
REMARK   37  A    between atoms: _91  and  _92
REMARK   38  A    between atoms: _95  and  _97
REMARK   39  A    between atoms: _97  and  _98
REMARK   40  A    between atoms: _97  and  _100
REMARK   41  A    between atoms: _100  and  _101
REMARK   42  A    between atoms: _101  and  _102
REMARK   43  A    between atoms: _102  and  _103
REMARK   44  A    between atoms: _103  and  _104
REMARK   45  A    between atoms: _108  and  _110
REMARK   46  A    between atoms: _110  and  _111
REMARK   47  A    between atoms: _110  and  _113
REMARK   48  A    between atoms: _113  and  _114
REMARK   49  A    between atoms: _119  and  _120
REMARK   50  A    between atoms: _122  and  _124
REMARK   51  A    between atoms: _124  and  _125
REMARK   52  A    between atoms: _124  and  _127
REMARK   53  A    between atoms: _127  and  _128
REMARK   54  A    between atoms: _133  and  _135
REMARK   55  A    between atoms: _135  and  _136
REMARK   56  A    between atoms: _135  and  _138
REMARK   57  A    between atoms: _138  and  _139
REMARK   58  A    between atoms: _142  and  _144
REMARK   59  A    between atoms: _144  and  _145
REMARK   60  A    between atoms: _147  and  _149
REMARK   61  A    between atoms: _149  and  _150
REMARK   62  A    between atoms: _153  and  _155
REMARK   63  A    between atoms: _155  and  _156
REMARK   64  A    between atoms: _155  and  _158
REMARK   65  A    between atoms: _158  and  _159
REMARK   66  A    between atoms: _164  and  _165
REMARK   67  A    between atoms: _167  and  _169
REMARK   68  A    between atoms: _169  and  _170
REMARK   69  A    between atoms: _169  and  _172
REMARK   70  A    between atoms: _172  and  _173
REMARK   71  A    between atoms: _176  and  _178
REMARK   72  A    between atoms: _178  and  _179
REMARK   73  A    between atoms: _178  and  _181
REMARK   74  A    between atoms: _184  and  _186
REMARK   75  A    between atoms: _186  and  _187
REMARK   76  A    between atoms: _186  and  _189
REMARK   77  A    between atoms: _189  and  _190
REMARK   78  A    between atoms: _190  and  _191
REMARK   79  A    between atoms: _191  and  _192
REMARK   80  A    between atoms: _201  and  _203
REMARK   81  A    between atoms: _203  and  _204
REMARK   82  A    between atoms: _203  and  _206
REMARK   83  A    between atoms: _206  and  _207
REMARK   84  A    between atoms: _210  and  _212
REMARK   85  A    between atoms: _212  and  _213
REMARK   86  A    between atoms: _212  and  _215
REMARK   87  A    between atoms: _218  and  _220
REMARK   88  A    between atoms: _220  and  _221
REMARK   89  A    between atoms: _220  and  _223
REMARK   90  A    between atoms: _223  and  _224
REMARK   91  A    between atoms: _224  and  _225
REMARK   92  A    between atoms: _225  and  _226
REMARK   93  A    between atoms: _235  and  _237
REMARK   94  A    between atoms: _237  and  _238
REMARK   95  A    between atoms: _241  and  _243
REMARK   96  A    between atoms: _243  and  _244
REMARK   97  A    between atoms: _246  and  _248
REMARK   98  A    between atoms: _248  and  _249
REMARK   99  A    between atoms: _248  and  _251
REMARK  100  A    between atoms: _251  and  _252
REMARK  101  A    between atoms: _257  and  _259
REMARK  102  A    between atoms: _259  and  _260
REMARK  103  A    between atoms: _259  and  _262
REMARK  104  A    between atoms: _262  and  _263
REMARK  105  A    between atoms: _263  and  _264
REMARK  106  A    between atoms: _264  and  _265
REMARK  107  A    between atoms: _274  and  _276
REMARK  108  A    between atoms: _276  and  _277
REMARK  109  A    between atoms: _276  and  _279
REMARK  110  A    between atoms: _279  and  _280
REMARK  111  A    between atoms: _283  and  _285
REMARK  112  A    between atoms: _285  and  _286
REMARK  113  A    between atoms: _285  and  _288
REMARK  114  A    between atoms: _288  and  _289
REMARK  115  A    between atoms: _291  and  _293
REMARK  116  A    between atoms: _293  and  _294
REMARK  117  A    between atoms: _293  and  _296
REMARK  118  A    between atoms: _296  and  _297
REMARK  119  A    between atoms: _297  and  _408
REMARK  120  A    between atoms: _298  and  _300
REMARK  121  A    between atoms: _300  and  _301
REMARK  122  A    between atoms: _300  and  _303
REMARK  123  A    between atoms: _303  and  _304
REMARK  124  A    between atoms: _304  and  _305
REMARK  125  A    between atoms: _310  and  _312
REMARK  126  A    between atoms: _312  and  _313
REMARK  127  A    between atoms: _315  and  _317
REMARK  128  A    between atoms: _317  and  _318
REMARK  129  A    between atoms: _317  and  _320
REMARK  130  A    between atoms: _320  and  _321
REMARK  131  A    between atoms: _324  and  _326
REMARK  132  A    between atoms: _326  and  _327
REMARK  133  A    between atoms: _326  and  _329
REMARK  134  A    between atoms: _329  and  _330
REMARK  135  A    between atoms: _332  and  _334
REMARK  136  A    between atoms: _334  and  _335
REMARK  137  A    between atoms: _337  and  _339
REMARK  138  A    between atoms: _339  and  _340
REMARK  139  A    between atoms: _342  and  _344
REMARK  140  A    between atoms: _344  and  _345
REMARK  141  A    between atoms: _344  and  _347
REMARK  142  A    between atoms: _350  and  _352
REMARK  143  A    between atoms: _352  and  _353
REMARK  144  A    between atoms: _352  and  _355
REMARK  145  A    between atoms: _358  and  _360
REMARK  146  A    between atoms: _360  and  _361
REMARK  147  A    between atoms: _360  and  _363
REMARK  148  A    between atoms: _363  and  _364
REMARK  149  A    between atoms: _366  and  _368
REMARK  150  A    between atoms: _368  and  _369
REMARK  151  A    between atoms: _368  and  _371
REMARK  152  A    between atoms: _371  and  _372
REMARK  153  A    between atoms: _382  and  _384
REMARK  154  A    between atoms: _384  and  _385
REMARK  155  A    between atoms: _387  and  _389
REMARK  156  A    between atoms: _389  and  _390
REMARK  157  A    between atoms: _389  and  _392
REMARK  158  A    between atoms: _392  and  _393
REMARK  159  A    between atoms: _393  and  _394
REMARK  160  A    between atoms: _397  and  _399
REMARK  161  A    between atoms: _399  and  _400
REMARK  162  A    between atoms: _402  and  _404
REMARK  163  A    between atoms: _404  and  _405
REMARK  164  A    between atoms: _404  and  _407
REMARK  165  A    between atoms: _407  and  _408
REMARK  166  A    between atoms: _409  and  _411
REMARK  167  A    between atoms: _411  and  _412
REMARK  168  A    between atoms: _415  and  _417
REMARK  169  A    between atoms: _417  and  _418
REMARK  170  A    between atoms: _417  and  _420
REMARK  171  A    between atoms: _420  and  _421
REMARK  172  A    between atoms: _421  and  _422
REMARK  173  A    between atoms: _427  and  _429
REMARK  174  A    between atoms: _429  and  _430
REMARK  175  A    between atoms: _429  and  _432
REMARK  176  A    between atoms: _432  and  _433
REMARK  177  A    between atoms: _438  and  _440
REMARK  178  A    between atoms: _440  and  _441
REMARK  179  A    between atoms: _440  and  _443
REMARK  180  A    between atoms: _443  and  _444
REMARK  181  A    between atoms: _444  and  _445
REMARK  182  A    between atoms: _445  and  _446
REMARK  183  A    between atoms: _456  and  _457
REMARK  184  A    between atoms: _462  and  _464
REMARK  185  A    between atoms: _464  and  _465
REMARK  186  A    between atoms: _467  and  _469
REMARK  187  A    between atoms: _469  and  _470
REMARK  188  A    between atoms: _469  and  _472
REMARK  189  A    between atoms: _472  and  _473
REMARK  190  A    between atoms: _476  and  _478
REMARK  191  A    between atoms: _478  and  _479
REMARK  192  A    between atoms: _478  and  _481
REMARK  193  A    between atoms: _481  and  _482
REMARK  194  A    between atoms: _487  and  _488
REMARK  195  A    between atoms: _490  and  _492
REMARK  196  A    between atoms: _492  and  _493
REMARK  197  A    between atoms: _496  and  _497
REMARK  198  A    between atoms: _502  and  _504
REMARK  199  A    between atoms: _504  and  _505
REMARK  200  A    between atoms: _504  and  _507
REMARK  201  A    between atoms: _507  and  _508
REMARK  202  A    between atoms: _511  and  _513
REMARK  203  A    between atoms: _513  and  _514
REMARK  204  A    between atoms: _513  and  _516
REMARK  205  A    between atoms: _519  and  _521
REMARK  206  A    between atoms: _521  and  _522
REMARK  207  A    between atoms: _521  and  _524
REMARK  208  A    between atoms: _524  and  _525
REMARK  209  A    between atoms: _533  and  _534
REMARK  210  A    between atoms: _533  and  _536
REMARK  211  A    between atoms: _536  and  _537
REMARK  212  A    between atoms: _542  and  _543
REMARK  213  A    between atoms: _545  and  _547
REMARK  214  A    between atoms: _547  and  _548
REMARK  215  A    between atoms: _547  and  _550
REMARK  216  A    between atoms: _550  and  _551
REMARK  217  A    between atoms: _554  and  _556
REMARK  218  A    between atoms: _556  and  _557
REMARK  219  A    between atoms: _556  and  _559
REMARK  220  A    between atoms: _559  and  _560
REMARK  221  A    between atoms: _560  and  _561
REMARK  222  A    between atoms: _566  and  _568
REMARK  223  A    between atoms: _568  and  _569
REMARK  224  A    between atoms: _568  and  _571
REMARK  225  A    between atoms: _571  and  _572
REMARK                            x       y       z     vdW  Elec       q    Type
REMARK                         _______ _______ _______ _____ _____    ______ ____
ROOT
ATOM      1  O   HOH     1      -7.067  58.769  -0.601  0.00  0.00    +0.000 OA
ENDROOT
TORSDOF 0
REMARK  Name = ../refined-set-2016/4a6l/4a6l_pocket.pdb
REMARK  225 active torsions:
REMARK  status: ('A' for Active; 'I' for Inactive)
REMARK    1  A    between atoms: _1  and  _5
REMARK    2  A    between atoms: _5  and  _6
REMARK    3  A    between atoms: _5  and  _8
REMARK    4  A    between atoms: _8  and  _9
REMARK    5  A    between atoms: _12  and  _14
REMARK    6  A    between atoms: _14  and  _15
REMARK    7  A    between atoms: _14  and  _17
REMARK    8  A    between atoms: _20  and  _22
REMARK    9  A    between atoms: _22  and  _23
REMARK   10  A    between atoms: _22  and  _25
REMARK   11  A    between atoms: _25  and  _26
REMARK   12  A    between atoms: _31  and  _33
REMARK   13  A    between atoms: _33  and  _34
REMARK   14  A    between atoms: _37  and  _39
REMARK   15  A    between atoms: _39  and  _40
REMARK   16  A    between atoms: _39  and  _42
REMARK   17  A    between atoms: _42  and  _43
REMARK   18  A    between atoms: _43  and  _44
REMARK   19  A    between atoms: _49  and  _51
REMARK   20  A    between atoms: _51  and  _52
REMARK   21  A    between atoms: _51  and  _54
REMARK   22  A    between atoms: _57  and  _59
REMARK   23  A    between atoms: _59  and  _60
REMARK   24  A    between atoms: _59  and  _62
REMARK   25  A    between atoms: _62  and  _63
REMARK   26  A    between atoms: _66  and  _68
REMARK   27  A    between atoms: _68  and  _69
REMARK   28  A    between atoms: _68  and  _71
REMARK   29  A    between atoms: _71  and  _72
REMARK   30  A    between atoms: _77  and  _79
REMARK   31  A    between atoms: _79  and  _80
REMARK   32  A    between atoms: _79  and  _82
REMARK   33  A    between atoms: _82  and  _83
REMARK   34  A    between atoms: _86  and  _88
REMARK   35  A    between atoms: _88  and  _89
REMARK   36  A    between atoms: _88  and  _91
REMARK   37  A    between atoms: _91  and  _92
REMARK   38  A    between atoms: _95  and  _97
REMARK   39  A    between atoms: _97  and  _98
REMARK   40  A    between atoms: _97  and  _100
REMARK   41  A    between atoms: _100  and  _101
REMARK   42  A    between atoms: _101  and  _102
REMARK   43  A    between atoms: _102  and  _103
REMARK   44  A    between atoms: _103  and  _104
REMARK   45  A    between atoms: _108  and  _110
REMARK   46  A    between atoms: _110  and  _111
REMARK   47  A    between atoms: _110  and  _113
REMARK   48  A    between atoms: _113  and  _114
REMARK   49  A    between atoms: _119  and  _120
REMARK   50  A    between atoms: _122  and  _124
REMARK   51  A    between atoms: _124  and  _125
REMARK   52  A    between atoms: _124  and  _127
REMARK   53  A    between atoms: _127  and  _128
REMARK   54  A    between atoms: _133  and  _135
REMARK   55  A    between atoms: _135  and  _136
REMARK   56  A    between atoms: _135  and  _138
REMARK   57  A    between atoms: _138  and  _139
REMARK   58  A    between atoms: _142  and  _144
REMARK   59  A    between atoms: _144  and  _145
REMARK   60  A    between atoms: _147  and  _149
REMARK   61  A    between atoms: _149  and  _150
REMARK   62  A    between atoms: _153  and  _155
REMARK   63  A    between atoms: _155  and  _156
REMARK   64  A    between atoms: _155  and  _158
REMARK   65  A    between atoms: _158  and  _159
REMARK   66  A    between atoms: _164  and  _165
REMARK   67  A    between atoms: _167  and  _169
REMARK   68  A    between atoms: _169  and  _170
REMARK   69  A    between atoms: _169  and  _172
REMARK   70  A    between atoms: _172  and  _173
REMARK   71  A    between atoms: _176  and  _178
REMARK   72  A    between atoms: _178  and  _179
REMARK   73  A    between atoms: _178  and  _181
REMARK   74  A    between atoms: _184  and  _186
REMARK   75  A    between atoms: _186  and  _187
REMARK   76  A    between atoms: _186  and  _189
REMARK   77  A    between atoms: _189  and  _190
REMARK   78  A    between atoms: _190  and  _191
REMARK   79  A    between atoms: _191  and  _192
REMARK   80  A    between atoms: _201  and  _203
REMARK   81  A    between atoms: _203  and  _204
REMARK   82  A    between atoms: _203  and  _206
REMARK   83  A    between atoms: _206  and  _207
REMARK   84  A    between atoms: _210  and  _212
REMARK   85  A    between atoms: _212  and  _213
REMARK   86  A    between atoms: _212  and  _215
REMARK   87  A    between atoms: _218  and  _220
REMARK   88  A    between atoms: _220  and  _221
REMARK   89  A    between atoms: _220  and  _223
REMARK   90  A    between atoms: _223  and  _224
REMARK   91  A    between atoms: _224  and  _225
REMARK   92  A    between atoms: _225  and  _226
REMARK   93  A    between atoms: _235  and  _237
REMARK   94  A    between atoms: _237  and  _238
REMARK   95  A    between atoms: _241  and  _243
REMARK   96  A    between atoms: _243  and  _244
REMARK   97  A    between atoms: _246  and  _248
REMARK   98  A    between atoms: _248  and  _249
REMARK   99  A    between atoms: _248  and  _251
REMARK  100  A    between atoms: _251  and  _252
REMARK  101  A    between atoms: _257  and  _259
REMARK  102  A    between atoms: _259  and  _260
REMARK  103  A    between atoms: _259  and  _262
REMARK  104  A    between atoms: _262  and  _263
REMARK  105  A    between atoms: _263  and  _264
REMARK  106  A    between atoms: _264  and  _265
REMARK  107  A    between atoms: _274  and  _276
REMARK  108  A    between atoms: _276  and  _277
REMARK  109  A    between atoms: _276  and  _279
REMARK  110  A    between atoms: _279  and  _280
REMARK  111  A    between atoms: _283  and  _285
REMARK  112  A    between atoms: _285  and  _286
REMARK  113  A    between atoms: _285  and  _288
REMARK  114  A    between atoms: _288  and  _289
REMARK  115  A    between atoms: _291  and  _293
REMARK  116  A    between atoms: _293  and  _294
REMARK  117  A    between atoms: _293  and  _296
REMARK  118  A    between atoms: _296  and  _297
REMARK  119  A    between atoms: _297  and  _408
REMARK  120  A    between atoms: _298  and  _300
REMARK  121  A    between atoms: _300  and  _301
REMARK  122  A    between atoms: _300  and  _303
REMARK  123  A    between atoms: _303  and  _304
REMARK  124  A    between atoms: _304  and  _305
REMARK  125  A    between atoms: _310  and  _312
REMARK  126  A    between atoms: _312  and  _313
REMARK  127  A    between atoms: _315  and  _317
REMARK  128  A    between atoms: _317  and  _318
REMARK  129  A    between atoms: _317  and  _320
REMARK  130  A    between atoms: _320  and  _321
REMARK  131  A    between atoms: _324  and  _326
REMARK  132  A    between atoms: _326  and  _327
REMARK  133  A    between atoms: _326  and  _329
REMARK  134  A    between atoms: _329  and  _330
REMARK  135  A    between atoms: _332  and  _334
REMARK  136  A    between atoms: _334  and  _335
REMARK  137  A    between atoms: _337  and  _339
REMARK  138  A    between atoms: _339  and  _340
REMARK  139  A    between atoms: _342  and  _344
REMARK  140  A    between atoms: _344  and  _345
REMARK  141  A    between atoms: _344  and  _347
REMARK  142  A    between atoms: _350  and  _352
REMARK  143  A    between atoms: _352  and  _353
REMARK  144  A    between atoms: _352  and  _355
REMARK  145  A    between atoms: _358  and  _360
REMARK  146  A    between atoms: _360  and  _361
REMARK  147  A    between atoms: _360  and  _363
REMARK  148  A    between atoms: _363  and  _364
REMARK  149  A    between atoms: _366  and  _368
REMARK  150  A    between atoms: _368  and  _369
REMARK  151  A    between atoms: _368  and  _371
REMARK  152  A    between atoms: _371  and  _372
REMARK  153  A    between atoms: _382  and  _384
REMARK  154  A    between atoms: _384  and  _385
REMARK  155  A    between atoms: _387  and  _389
REMARK  156  A    between atoms: _389  and  _390
REMARK  157  A    between atoms: _389  and  _392
REMARK  158  A    between atoms: _392  and  _393
REMARK  159  A    between atoms: _393  and  _394
REMARK  160  A    between atoms: _397  and  _399
REMARK  161  A    between atoms: _399  and  _400
REMARK  162  A    between atoms: _402  and  _404
REMARK  163  A    between atoms: _404  and  _405
REMARK  164  A    between atoms: _404  and  _407
REMARK  165  A    between atoms: _407  and  _408
REMARK  166  A    between atoms: _409  and  _411
REMARK  167  A    between atoms: _411  and  _412
REMARK  168  A    between atoms: _415  and  _417
REMARK  169  A    between atoms: _417  and  _418
REMARK  170  A    between atoms: _417  and  _420
REMARK  171  A    between atoms: _420  and  _421
REMARK  172  A    between atoms: _421  and  _422
REMARK  173  A    between atoms: _427  and  _429
REMARK  174  A    between atoms: _429  and  _430
REMARK  175  A    between atoms: _429  and  _432
REMARK  176  A    between atoms: _432  and  _433
REMARK  177  A    between atoms: _438  and  _440
REMARK  178  A    between atoms: _440  and  _441
REMARK  179  A    between atoms: _440  and  _443
REMARK  180  A    between atoms: _443  and  _444
REMARK  181  A    between atoms: _444  and  _445
REMARK  182  A    between atoms: _445  and  _446
REMARK  183  A    between atoms: _456  and  _457
REMARK  184  A    between atoms: _462  and  _464
REMARK  185  A    between atoms: _464  and  _465
REMARK  186  A    between atoms: _467  and  _469
REMARK  187  A    between atoms: _469  and  _470
REMARK  188  A    between atoms: _469  and  _472
REMARK  189  A    between atoms: _472  and  _473
REMARK  190  A    between atoms: _476  and  _478
REMARK  191  A    between atoms: _478  and  _479
REMARK  192  A    between atoms: _478  and  _481
REMARK  193  A    between atoms: _481  and  _482
REMARK  194  A    between atoms: _487  and  _488
REMARK  195  A    between atoms: _490  and  _492
REMARK  196  A    between atoms: _492  and  _493
REMARK  197  A    between atoms: _496  and  _497
REMARK  198  A    between atoms: _502  and  _504
REMARK  199  A    between atoms: _504  and  _505
REMARK  200  A    between atoms: _504  and  _507
REMARK  201  A    between atoms: _507  and  _508
REMARK  202  A    between atoms: _511  and  _513
REMARK  203  A    between atoms: _513  and  _514
REMARK  204  A    between atoms: _513  and  _516
REMARK  205  A    between atoms: _519  and  _521
REMARK  206  A    between atoms: _521  and  _522
REMARK  207  A    between atoms: _521  and  _524
REMARK  208  A    between atoms: _524  and  _525
REMARK  209  A    between atoms: _533  and  _534
REMARK  210  A    between atoms: _533  and  _536
REMARK  211  A    between atoms: _536  and  _537
REMARK  212  A    between atoms: _542  and  _543
REMARK  213  A    between atoms: _545  and  _547
REMARK  214  A    between atoms: _547  and  _548
REMARK  215  A    between atoms: _547  and  _550
REMARK  216  A    between atoms: _550  and  _551
REMARK  217  A    between atoms: _554  and  _556
REMARK  218  A    between atoms: _556  and  _557
REMARK  219  A    between atoms: _556  and  _559
REMARK  220  A    between atoms: _559  and  _560
REMARK  221  A    between atoms: _560  and  _561
REMARK  222  A    between atoms: _566  and  _568
REMARK  223  A    between atoms: _568  and  _569
REMARK  224  A    between atoms: _568  and  _571
REMARK  225  A    between atoms: _571  and  _572
REMARK                            x       y       z     vdW  Elec       q    Type
REMARK                         _______ _______ _______ _____ _____    ______ ____
ROOT
ATOM      1  O   HOH     1     -13.245  52.004   0.193  0.00  0.00    +0.000 OA
ENDROOT
TORSDOF 0
REMARK  Name = ../refined-set-2016/4a6l/4a6l_pocket.pdb
REMARK  225 active torsions:
REMARK  status: ('A' for Active; 'I' for Inactive)
REMARK    1  A    between atoms: _1  and  _5
REMARK    2  A    between atoms: _5  and  _6
REMARK    3  A    between atoms: _5  and  _8
REMARK    4  A    between atoms: _8  and  _9
REMARK    5  A    between atoms: _12  and  _14
REMARK    6  A    between atoms: _14  and  _15
REMARK    7  A    between atoms: _14  and  _17
REMARK    8  A    between atoms: _20  and  _22
REMARK    9  A    between atoms: _22  and  _23
REMARK   10  A    between atoms: _22  and  _25
REMARK   11  A    between atoms: _25  and  _26
REMARK   12  A    between atoms: _31  and  _33
REMARK   13  A    between atoms: _33  and  _34
REMARK   14  A    between atoms: _37  and  _39
REMARK   15  A    between atoms: _39  and  _40
REMARK   16  A    between atoms: _39  and  _42
REMARK   17  A    between atoms: _42  and  _43
REMARK   18  A    between atoms: _43  and  _44
REMARK   19  A    between atoms: _49  and  _51
REMARK   20  A    between atoms: _51  and  _52
REMARK   21  A    between atoms: _51  and  _54
REMARK   22  A    between atoms: _57  and  _59
REMARK   23  A    between atoms: _59  and  _60
REMARK   24  A    between atoms: _59  and  _62
REMARK   25  A    between atoms: _62  and  _63
REMARK   26  A    between atoms: _66  and  _68
REMARK   27  A    between atoms: _68  and  _69
REMARK   28  A    between atoms: _68  and  _71
REMARK   29  A    between atoms: _71  and  _72
REMARK   30  A    between atoms: _77  and  _79
REMARK   31  A    between atoms: _79  and  _80
REMARK   32  A    between atoms: _79  and  _82
REMARK   33  A    between atoms: _82  and  _83
REMARK   34  A    between atoms: _86  and  _88
REMARK   35  A    between atoms: _88  and  _89
REMARK   36  A    between atoms: _88  and  _91
REMARK   37  A    between atoms: _91  and  _92
REMARK   38  A    between atoms: _95  and  _97
REMARK   39  A    between atoms: _97  and  _98
REMARK   40  A    between atoms: _97  and  _100
REMARK   41  A    between atoms: _100  and  _101
REMARK   42  A    between atoms: _101  and  _102
REMARK   43  A    between atoms: _102  and  _103
REMARK   44  A    between atoms: _103  and  _104
REMARK   45  A    between atoms: _108  and  _110
REMARK   46  A    between atoms: _110  and  _111
REMARK   47  A    between atoms: _110  and  _113
REMARK   48  A    between atoms: _113  and  _114
REMARK   49  A    between atoms: _119  and  _120
REMARK   50  A    between atoms: _122  and  _124
REMARK   51  A    between atoms: _124  and  _125
REMARK   52  A    between atoms: _124  and  _127
REMARK   53  A    between atoms: _127  and  _128
REMARK   54  A    between atoms: _133  and  _135
REMARK   55  A    between atoms: _135  and  _136
REMARK   56  A    between atoms: _135  and  _138
REMARK   57  A    between atoms: _138  and  _139
REMARK   58  A    between atoms: _142  and  _144
REMARK   59  A    between atoms: _144  and  _145
REMARK   60  A    between atoms: _147  and  _149
REMARK   61  A    between atoms: _149  and  _150
REMARK   62  A    between atoms: _153  and  _155
REMARK   63  A    between atoms: _155  and  _156
REMARK   64  A    between atoms: _155  and  _158
REMARK   65  A    between atoms: _158  and  _159
REMARK   66  A    between atoms: _164  and  _165
REMARK   67  A    between atoms: _167  and  _169
REMARK   68  A    between atoms: _169  and  _170
REMARK   69  A    between atoms: _169  and  _172
REMARK   70  A    between atoms: _172  and  _173
REMARK   71  A    between atoms: _176  and  _178
REMARK   72  A    between atoms: _178  and  _179
REMARK   73  A    between atoms: _178  and  _181
REMARK   74  A    between atoms: _184  and  _186
REMARK   75  A    between atoms: _186  and  _187
REMARK   76  A    between atoms: _186  and  _189
REMARK   77  A    between atoms: _189  and  _190
REMARK   78  A    between atoms: _190  and  _191
REMARK   79  A    between atoms: _191  and  _192
REMARK   80  A    between atoms: _201  and  _203
REMARK   81  A    between atoms: _203  and  _204
REMARK   82  A    between atoms: _203  and  _206
REMARK   83  A    between atoms: _206  and  _207
REMARK   84  A    between atoms: _210  and  _212
REMARK   85  A    between atoms: _212  and  _213
REMARK   86  A    between atoms: _212  and  _215
REMARK   87  A    between atoms: _218  and  _220
REMARK   88  A    between atoms: _220  and  _221
REMARK   89  A    between atoms: _220  and  _223
REMARK   90  A    between atoms: _223  and  _224
REMARK   91  A    between atoms: _224  and  _225
REMARK   92  A    between atoms: _225  and  _226
REMARK   93  A    between atoms: _235  and  _237
REMARK   94  A    between atoms: _237  and  _238
REMARK   95  A    between atoms: _241  and  _243
REMARK   96  A    between atoms: _243  and  _244
REMARK   97  A    between atoms: _246  and  _248
REMARK   98  A    between atoms: _248  and  _249
REMARK   99  A    between atoms: _248  and  _251
REMARK  100  A    between atoms: _251  and  _252
REMARK  101  A    between atoms: _257  and  _259
REMARK  102  A    between atoms: _259  and  _260
REMARK  103  A    between atoms: _259  and  _262
REMARK  104  A    between atoms: _262  and  _263
REMARK  105  A    between atoms: _263  and  _264
REMARK  106  A    between atoms: _264  and  _265
REMARK  107  A    between atoms: _274  and  _276
REMARK  108  A    between atoms: _276  and  _277
REMARK  109  A    between atoms: _276  and  _279
REMARK  110  A    between atoms: _279  and  _280
REMARK  111  A    between atoms: _283  and  _285
REMARK  112  A    between atoms: _285  and  _286
REMARK  113  A    between atoms: _285  and  _288
REMARK  114  A    between atoms: _288  and  _289
REMARK  115  A    between atoms: _291  and  _293
REMARK  116  A    between atoms: _293  and  _294
REMARK  117  A    between atoms: _293  and  _296
REMARK  118  A    between atoms: _296  and  _297
REMARK  119  A    between atoms: _297  and  _408
REMARK  120  A    between atoms: _298  and  _300
REMARK  121  A    between atoms: _300  and  _301
REMARK  122  A    between atoms: _300  and  _303
REMARK  123  A    between atoms: _303  and  _304
REMARK  124  A    between atoms: _304  and  _305
REMARK  125  A    between atoms: _310  and  _312
REMARK  126  A    between atoms: _312  and  _313
REMARK  127  A    between atoms: _315  and  _317
REMARK  128  A    between atoms: _317  and  _318
REMARK  129  A    between atoms: _317  and  _320
REMARK  130  A    between atoms: _320  and  _321
REMARK  131  A    between atoms: _324  and  _326
REMARK  132  A    between atoms: _326  and  _327
REMARK  133  A    between atoms: _326  and  _329
REMARK  134  A    between atoms: _329  and  _330
REMARK  135  A    between atoms: _332  and  _334
REMARK  136  A    between atoms: _334  and  _335
REMARK  137  A    between atoms: _337  and  _339
REMARK  138  A    between atoms: _339  and  _340
REMARK  139  A    between atoms: _342  and  _344
REMARK  140  A    between atoms: _344  and  _345
REMARK  141  A    between atoms: _344  and  _347
REMARK  142  A    between atoms: _350  and  _352
REMARK  143  A    between atoms: _352  and  _353
REMARK  144  A    between atoms: _352  and  _355
REMARK  145  A    between atoms: _358  and  _360
REMARK  146  A    between atoms: _360  and  _361
REMARK  147  A    between atoms: _360  and  _363
REMARK  148  A    between atoms: _363  and  _364
REMARK  149  A    between atoms: _366  and  _368
REMARK  150  A    between atoms: _368  and  _369
REMARK  151  A    between atoms: _368  and  _371
REMARK  152  A    between atoms: _371  and  _372
REMARK  153  A    between atoms: _382  and  _384
REMARK  154  A    between atoms: _384  and  _385
REMARK  155  A    between atoms: _387  and  _389
REMARK  156  A    between atoms: _389  and  _390
REMARK  157  A    between atoms: _389  and  _392
REMARK  158  A    between atoms: _392  and  _393
REMARK  159  A    between atoms: _393  and  _394
REMARK  160  A    between atoms: _397  and  _399
REMARK  161  A    between atoms: _399  and  _400
REMARK  162  A    between atoms: _402  and  _404
REMARK  163  A    between atoms: _404  and  _405
REMARK  164  A    between atoms: _404  and  _407
REMARK  165  A    between atoms: _407  and  _408
REMARK  166  A    between atoms: _409  and  _411
REMARK  167  A    between atoms: _411  and  _412
REMARK  168  A    between atoms: _415  and  _417
REMARK  169  A    between atoms: _417  and  _418
REMARK  170  A    between atoms: _417  and  _420
REMARK  171  A    between atoms: _420  and  _421
REMARK  172  A    between atoms: _421  and  _422
REMARK  173  A    between atoms: _427  and  _429
REMARK  174  A    between atoms: _429  and  _430
REMARK  175  A    between atoms: _429  and  _432
REMARK  176  A    between atoms: _432  and  _433
REMARK  177  A    between atoms: _438  and  _440
REMARK  178  A    between atoms: _440  and  _441
REMARK  179  A    between atoms: _440  and  _443
REMARK  180  A    between atoms: _443  and  _444
REMARK  181  A    between atoms: _444  and  _445
REMARK  182  A    between atoms: _445  and  _446
REMARK  183  A    between atoms: _456  and  _457
REMARK  184  A    between atoms: _462  and  _464
REMARK  185  A    between atoms: _464  and  _465
REMARK  186  A    between atoms: _467  and  _469
REMARK  187  A    between atoms: _469  and  _470
REMARK  188  A    between atoms: _469  and  _472
REMARK  189  A    between atoms: _472  and  _473
REMARK  190  A    between atoms: _476  and  _478
REMARK  191  A    between atoms: _478  and  _479
REMARK  192  A    between atoms: _478  and  _481
REMARK  193  A    between atoms: _481  and  _482
REMARK  194  A    between atoms: _487  and  _488
REMARK  195  A    between atoms: _490  and  _492
REMARK  196  A    between atoms: _492  and  _493
REMARK  197  A    between atoms: _496  and  _497
REMARK  198  A    between atoms: _502  and  _504
REMARK  199  A    between atoms: _504  and  _505
REMARK  200  A    between atoms: _504  and  _507
REMARK  201  A    between atoms: _507  and  _508
REMARK  202  A    between atoms: _511  and  _513
REMARK  203  A    between atoms: _513  and  _514
REMARK  204  A    between atoms: _513  and  _516
REMARK  205  A    between atoms: _519  and  _521
REMARK  206  A    between atoms: _521  and  _522
REMARK  207  A    between atoms: _521  and  _524
REMARK  208  A    between atoms: _524  and  _525
REMARK  209  A    between atoms: _533  and  _534
REMARK  210  A    between atoms: _533  and  _536
REMARK  211  A    between atoms: _536  and  _537
REMARK  212  A    between atoms: _542  and  _543
REMARK  213  A    between atoms: _545  and  _547
REMARK  214  A    between atoms: _547  and  _548
REMARK  215  A    between atoms: _547  and  _550
REMARK  216  A    between atoms: _550  and  _551
REMARK  217  A    between atoms: _554  and  _556
REMARK  218  A    between atoms: _556  and  _557
REMARK  219  A    between atoms: _556  and  _559
REMARK  220  A    between atoms: _559  and  _560
REMARK  221  A    between atoms: _560  and  _561
REMARK  222  A    between atoms: _566  and  _568
REMARK  223  A    between atoms: _568  and  _569
REMARK  224  A    between atoms: _568  and  _571
REMARK  225  A    between atoms: _571  and  _572
REMARK                            x       y       z     vdW  Elec       q    Type
REMARK                         _______ _______ _______ _____ _____    ______ ____
ROOT
ATOM      1  O   HOH     1      -9.491  56.190   2.611  0.00  0.00    +0.000 OA
ENDROOT
TORSDOF 0
REMARK  Name = ../refined-set-2016/4a6l/4a6l_pocket.pdb
REMARK  225 active torsions:
REMARK  status: ('A' for Active; 'I' for Inactive)
REMARK    1  A    between atoms: _1  and  _5
REMARK    2  A    between atoms: _5  and  _6
REMARK    3  A    between atoms: _5  and  _8
REMARK    4  A    between atoms: _8  and  _9
REMARK    5  A    between atoms: _12  and  _14
REMARK    6  A    between atoms: _14  and  _15
REMARK    7  A    between atoms: _14  and  _17
REMARK    8  A    between atoms: _20  and  _22
REMARK    9  A    between atoms: _22  and  _23
REMARK   10  A    between atoms: _22  and  _25
REMARK   11  A    between atoms: _25  and  _26
REMARK   12  A    between atoms: _31  and  _33
REMARK   13  A    between atoms: _33  and  _34
REMARK   14  A    between atoms: _37  and  _39
REMARK   15  A    between atoms: _39  and  _40
REMARK   16  A    between atoms: _39  and  _42
REMARK   17  A    between atoms: _42  and  _43
REMARK   18  A    between atoms: _43  and  _44
REMARK   19  A    between atoms: _49  and  _51
REMARK   20  A    between atoms: _51  and  _52
REMARK   21  A    between atoms: _51  and  _54
REMARK   22  A    between atoms: _57  and  _59
REMARK   23  A    between atoms: _59  and  _60
REMARK   24  A    between atoms: _59  and  _62
REMARK   25  A    between atoms: _62  and  _63
REMARK   26  A    between atoms: _66  and  _68
REMARK   27  A    between atoms: _68  and  _69
REMARK   28  A    between atoms: _68  and  _71
REMARK   29  A    between atoms: _71  and  _72
REMARK   30  A    between atoms: _77  and  _79
REMARK   31  A    between atoms: _79  and  _80
REMARK   32  A    between atoms: _79  and  _82
REMARK   33  A    between atoms: _82  and  _83
REMARK   34  A    between atoms: _86  and  _88
REMARK   35  A    between atoms: _88  and  _89
REMARK   36  A    between atoms: _88  and  _91
REMARK   37  A    between atoms: _91  and  _92
REMARK   38  A    between atoms: _95  and  _97
REMARK   39  A    between atoms: _97  and  _98
REMARK   40  A    between atoms: _97  and  _100
REMARK   41  A    between atoms: _100  and  _101
REMARK   42  A    between atoms: _101  and  _102
REMARK   43  A    between atoms: _102  and  _103
REMARK   44  A    between atoms: _103  and  _104
REMARK   45  A    between atoms: _108  and  _110
REMARK   46  A    between atoms: _110  and  _111
REMARK   47  A    between atoms: _110  and  _113
REMARK   48  A    between atoms: _113  and  _114
REMARK   49  A    between atoms: _119  and  _120
REMARK   50  A    between atoms: _122  and  _124
REMARK   51  A    between atoms: _124  and  _125
REMARK   52  A    between atoms: _124  and  _127
REMARK   53  A    between atoms: _127  and  _128
REMARK   54  A    between atoms: _133  and  _135
REMARK   55  A    between atoms: _135  and  _136
REMARK   56  A    between atoms: _135  and  _138
REMARK   57  A    between atoms: _138  and  _139
REMARK   58  A    between atoms: _142  and  _144
REMARK   59  A    between atoms: _144  and  _145
REMARK   60  A    between atoms: _147  and  _149
REMARK   61  A    between atoms: _149  and  _150
REMARK   62  A    between atoms: _153  and  _155
REMARK   63  A    between atoms: _155  and  _156
REMARK   64  A    between atoms: _155  and  _158
REMARK   65  A    between atoms: _158  and  _159
REMARK   66  A    between atoms: _164  and  _165
REMARK   67  A    between atoms: _167  and  _169
REMARK   68  A    between atoms: _169  and  _170
REMARK   69  A    between atoms: _169  and  _172
REMARK   70  A    between atoms: _172  and  _173
REMARK   71  A    between atoms: _176  and  _178
REMARK   72  A    between atoms: _178  and  _179
REMARK   73  A    between atoms: _178  and  _181
REMARK   74  A    between atoms: _184  and  _186
REMARK   75  A    between atoms: _186  and  _187
REMARK   76  A    between atoms: _186  and  _189
REMARK   77  A    between atoms: _189  and  _190
REMARK   78  A    between atoms: _190  and  _191
REMARK   79  A    between atoms: _191  and  _192
REMARK   80  A    between atoms: _201  and  _203
REMARK   81  A    between atoms: _203  and  _204
REMARK   82  A    between atoms: _203  and  _206
REMARK   83  A    between atoms: _206  and  _207
REMARK   84  A    between atoms: _210  and  _212
REMARK   85  A    between atoms: _212  and  _213
REMARK   86  A    between atoms: _212  and  _215
REMARK   87  A    between atoms: _218  and  _220
REMARK   88  A    between atoms: _220  and  _221
REMARK   89  A    between atoms: _220  and  _223
REMARK   90  A    between atoms: _223  and  _224
REMARK   91  A    between atoms: _224  and  _225
REMARK   92  A    between atoms: _225  and  _226
REMARK   93  A    between atoms: _235  and  _237
REMARK   94  A    between atoms: _237  and  _238
REMARK   95  A    between atoms: _241  and  _243
REMARK   96  A    between atoms: _243  and  _244
REMARK   97  A    between atoms: _246  and  _248
REMARK   98  A    between atoms: _248  and  _249
REMARK   99  A    between atoms: _248  and  _251
REMARK  100  A    between atoms: _251  and  _252
REMARK  101  A    between atoms: _257  and  _259
REMARK  102  A    between atoms: _259  and  _260
REMARK  103  A    between atoms: _259  and  _262
REMARK  104  A    between atoms: _262  and  _263
REMARK  105  A    between atoms: _263  and  _264
REMARK  106  A    between atoms: _264  and  _265
REMARK  107  A    between atoms: _274  and  _276
REMARK  108  A    between atoms: _276  and  _277
REMARK  109  A    between atoms: _276  and  _279
REMARK  110  A    between atoms: _279  and  _280
REMARK  111  A    between atoms: _283  and  _285
REMARK  112  A    between atoms: _285  and  _286
REMARK  113  A    between atoms: _285  and  _288
REMARK  114  A    between atoms: _288  and  _289
REMARK  115  A    between atoms: _291  and  _293
REMARK  116  A    between atoms: _293  and  _294
REMARK  117  A    between atoms: _293  and  _296
REMARK  118  A    between atoms: _296  and  _297
REMARK  119  A    between atoms: _297  and  _408
REMARK  120  A    between atoms: _298  and  _300
REMARK  121  A    between atoms: _300  and  _301
REMARK  122  A    between atoms: _300  and  _303
REMARK  123  A    between atoms: _303  and  _304
REMARK  124  A    between atoms: _304  and  _305
REMARK  125  A    between atoms: _310  and  _312
REMARK  126  A    between atoms: _312  and  _313
REMARK  127  A    between atoms: _315  and  _317
REMARK  128  A    between atoms: _317  and  _318
REMARK  129  A    between atoms: _317  and  _320
REMARK  130  A    between atoms: _320  and  _321
REMARK  131  A    between atoms: _324  and  _326
REMARK  132  A    between atoms: _326  and  _327
REMARK  133  A    between atoms: _326  and  _329
REMARK  134  A    between atoms: _329  and  _330
REMARK  135  A    between atoms: _332  and  _334
REMARK  136  A    between atoms: _334  and  _335
REMARK  137  A    between atoms: _337  and  _339
REMARK  138  A    between atoms: _339  and  _340
REMARK  139  A    between atoms: _342  and  _344
REMARK  140  A    between atoms: _344  and  _345
REMARK  141  A    between atoms: _344  and  _347
REMARK  142  A    between atoms: _350  and  _352
REMARK  143  A    between atoms: _352  and  _353
REMARK  144  A    between atoms: _352  and  _355
REMARK  145  A    between atoms: _358  and  _360
REMARK  146  A    between atoms: _360  and  _361
REMARK  147  A    between atoms: _360  and  _363
REMARK  148  A    between atoms: _363  and  _364
REMARK  149  A    between atoms: _366  and  _368
REMARK  150  A    between atoms: _368  and  _369
REMARK  151  A    between atoms: _368  and  _371
REMARK  152  A    between atoms: _371  and  _372
REMARK  153  A    between atoms: _382  and  _384
REMARK  154  A    between atoms: _384  and  _385
REMARK  155  A    between atoms: _387  and  _389
REMARK  156  A    between atoms: _389  and  _390
REMARK  157  A    between atoms: _389  and  _392
REMARK  158  A    between atoms: _392  and  _393
REMARK  159  A    between atoms: _393  and  _394
REMARK  160  A    between atoms: _397  and  _399
REMARK  161  A    between atoms: _399  and  _400
REMARK  162  A    between atoms: _402  and  _404
REMARK  163  A    between atoms: _404  and  _405
REMARK  164  A    between atoms: _404  and  _407
REMARK  165  A    between atoms: _407  and  _408
REMARK  166  A    between atoms: _409  and  _411
REMARK  167  A    between atoms: _411  and  _412
REMARK  168  A    between atoms: _415  and  _417
REMARK  169  A    between atoms: _417  and  _418
REMARK  170  A    between atoms: _417  and  _420
REMARK  171  A    between atoms: _420  and  _421
REMARK  172  A    between atoms: _421  and  _422
REMARK  173  A    between atoms: _427  and  _429
REMARK  174  A    between atoms: _429  and  _430
REMARK  175  A    between atoms: _429  and  _432
REMARK  176  A    between atoms: _432  and  _433
REMARK  177  A    between atoms: _438  and  _440
REMARK  178  A    between atoms: _440  and  _441
REMARK  179  A    between atoms: _440  and  _443
REMARK  180  A    between atoms: _443  and  _444
REMARK  181  A    between atoms: _444  and  _445
REMARK  182  A    between atoms: _445  and  _446
REMARK  183  A    between atoms: _456  and  _457
REMARK  184  A    between atoms: _462  and  _464
REMARK  185  A    between atoms: _464  and  _465
REMARK  186  A    between atoms: _467  and  _469
REMARK  187  A    between atoms: _469  and  _470
REMARK  188  A    between atoms: _469  and  _472
REMARK  189  A    between atoms: _472  and  _473
REMARK  190  A    between atoms: _476  and  _478
REMARK  191  A    between atoms: _478  and  _479
REMARK  192  A    between atoms: _478  and  _481
REMARK  193  A    between atoms: _481  and  _482
REMARK  194  A    between atoms: _487  and  _488
REMARK  195  A    between atoms: _490  and  _492
REMARK  196  A    between atoms: _492  and  _493
REMARK  197  A    between atoms: _496  and  _497
REMARK  198  A    between atoms: _502  and  _504
REMARK  199  A    between atoms: _504  and  _505
REMARK  200  A    between atoms: _504  and  _507
REMARK  201  A    between atoms: _507  and  _508
REMARK  202  A    between atoms: _511  and  _513
REMARK  203  A    between atoms: _513  and  _514
REMARK  204  A    between atoms: _513  and  _516
REMARK  205  A    between atoms: _519  and  _521
REMARK  206  A    between atoms: _521  and  _522
REMARK  207  A    between atoms: _521  and  _524
REMARK  208  A    between atoms: _524  and  _525
REMARK  209  A    between atoms: _533  and  _534
REMARK  210  A    between atoms: _533  and  _536
REMARK  211  A    between atoms: _536  and  _537
REMARK  212  A    between atoms: _542  and  _543
REMARK  213  A    between atoms: _545  and  _547
REMARK  214  A    between atoms: _547  and  _548
REMARK  215  A    between atoms: _547  and  _550
REMARK  216  A    between atoms: _550  and  _551
REMARK  217  A    between atoms: _554  and  _556
REMARK  218  A    between atoms: _556  and  _557
REMARK  219  A    between atoms: _556  and  _559
REMARK  220  A    between atoms: _559  and  _560
REMARK  221  A    between atoms: _560  and  _561
REMARK  222  A    between atoms: _566  and  _568
REMARK  223  A    between atoms: _568  and  _569
REMARK  224  A    between atoms: _568  and  _571
REMARK  225  A    between atoms: _571  and  _572
REMARK                            x       y       z     vdW  Elec       q    Type
REMARK                         _______ _______ _______ _____ _____    ______ ____
ROOT
ATOM      1  O   HOH     1     -17.008  55.931  -4.528  0.00  0.00    +0.000 OA
ENDROOT
TORSDOF 0
REMARK  Name = ../refined-set-2016/4a6l/4a6l_pocket.pdb
REMARK  225 active torsions:
REMARK  status: ('A' for Active; 'I' for Inactive)
REMARK    1  A    between atoms: _1  and  _5
REMARK    2  A    between atoms: _5  and  _6
REMARK    3  A    between atoms: _5  and  _8
REMARK    4  A    between atoms: _8  and  _9
REMARK    5  A    between atoms: _12  and  _14
REMARK    6  A    between atoms: _14  and  _15
REMARK    7  A    between atoms: _14  and  _17
REMARK    8  A    between atoms: _20  and  _22
REMARK    9  A    between atoms: _22  and  _23
REMARK   10  A    between atoms: _22  and  _25
REMARK   11  A    between atoms: _25  and  _26
REMARK   12  A    between atoms: _31  and  _33
REMARK   13  A    between atoms: _33  and  _34
REMARK   14  A    between atoms: _37  and  _39
REMARK   15  A    between atoms: _39  and  _40
REMARK   16  A    between atoms: _39  and  _42
REMARK   17  A    between atoms: _42  and  _43
REMARK   18  A    between atoms: _43  and  _44
REMARK   19  A    between atoms: _49  and  _51
REMARK   20  A    between atoms: _51  and  _52
REMARK   21  A    between atoms: _51  and  _54
REMARK   22  A    between atoms: _57  and  _59
REMARK   23  A    between atoms: _59  and  _60
REMARK   24  A    between atoms: _59  and  _62
REMARK   25  A    between atoms: _62  and  _63
REMARK   26  A    between atoms: _66  and  _68
REMARK   27  A    between atoms: _68  and  _69
REMARK   28  A    between atoms: _68  and  _71
REMARK   29  A    between atoms: _71  and  _72
REMARK   30  A    between atoms: _77  and  _79
REMARK   31  A    between atoms: _79  and  _80
REMARK   32  A    between atoms: _79  and  _82
REMARK   33  A    between atoms: _82  and  _83
REMARK   34  A    between atoms: _86  and  _88
REMARK   35  A    between atoms: _88  and  _89
REMARK   36  A    between atoms: _88  and  _91
REMARK   37  A    between atoms: _91  and  _92
REMARK   38  A    between atoms: _95  and  _97
REMARK   39  A    between atoms: _97  and  _98
REMARK   40  A    between atoms: _97  and  _100
REMARK   41  A    between atoms: _100  and  _101
REMARK   42  A    between atoms: _101  and  _102
REMARK   43  A    between atoms: _102  and  _103
REMARK   44  A    between atoms: _103  and  _104
REMARK   45  A    between atoms: _108  and  _110
REMARK   46  A    between atoms: _110  and  _111
REMARK   47  A    between atoms: _110  and  _113
REMARK   48  A    between atoms: _113  and  _114
REMARK   49  A    between atoms: _119  and  _120
REMARK   50  A    between atoms: _122  and  _124
REMARK   51  A    between atoms: _124  and  _125
REMARK   52  A    between atoms: _124  and  _127
REMARK   53  A    between atoms: _127  and  _128
REMARK   54  A    between atoms: _133  and  _135
REMARK   55  A    between atoms: _135  and  _136
REMARK   56  A    between atoms: _135  and  _138
REMARK   57  A    between atoms: _138  and  _139
REMARK   58  A    between atoms: _142  and  _144
REMARK   59  A    between atoms: _144  and  _145
REMARK   60  A    between atoms: _147  and  _149
REMARK   61  A    between atoms: _149  and  _150
REMARK   62  A    between atoms: _153  and  _155
REMARK   63  A    between atoms: _155  and  _156
REMARK   64  A    between atoms: _155  and  _158
REMARK   65  A    between atoms: _158  and  _159
REMARK   66  A    between atoms: _164  and  _165
REMARK   67  A    between atoms: _167  and  _169
REMARK   68  A    between atoms: _169  and  _170
REMARK   69  A    between atoms: _169  and  _172
REMARK   70  A    between atoms: _172  and  _173
REMARK   71  A    between atoms: _176  and  _178
REMARK   72  A    between atoms: _178  and  _179
REMARK   73  A    between atoms: _178  and  _181
REMARK   74  A    between atoms: _184  and  _186
REMARK   75  A    between atoms: _186  and  _187
REMARK   76  A    between atoms: _186  and  _189
REMARK   77  A    between atoms: _189  and  _190
REMARK   78  A    between atoms: _190  and  _191
REMARK   79  A    between atoms: _191  and  _192
REMARK   80  A    between atoms: _201  and  _203
REMARK   81  A    between atoms: _203  and  _204
REMARK   82  A    between atoms: _203  and  _206
REMARK   83  A    between atoms: _206  and  _207
REMARK   84  A    between atoms: _210  and  _212
REMARK   85  A    between atoms: _212  and  _213
REMARK   86  A    between atoms: _212  and  _215
REMARK   87  A    between atoms: _218  and  _220
REMARK   88  A    between atoms: _220  and  _221
REMARK   89  A    between atoms: _220  and  _223
REMARK   90  A    between atoms: _223  and  _224
REMARK   91  A    between atoms: _224  and  _225
REMARK   92  A    between atoms: _225  and  _226
REMARK   93  A    between atoms: _235  and  _237
REMARK   94  A    between atoms: _237  and  _238
REMARK   95  A    between atoms: _241  and  _243
REMARK   96  A    between atoms: _243  and  _244
REMARK   97  A    between atoms: _246  and  _248
REMARK   98  A    between atoms: _248  and  _249
REMARK   99  A    between atoms: _248  and  _251
REMARK  100  A    between atoms: _251  and  _252
REMARK  101  A    between atoms: _257  and  _259
REMARK  102  A    between atoms: _259  and  _260
REMARK  103  A    between atoms: _259  and  _262
REMARK  104  A    between atoms: _262  and  _263
REMARK  105  A    between atoms: _263  and  _264
REMARK  106  A    between atoms: _264  and  _265
REMARK  107  A    between atoms: _274  and  _276
REMARK  108  A    between atoms: _276  and  _277
REMARK  109  A    between atoms: _276  and  _279
REMARK  110  A    between atoms: _279  and  _280
REMARK  111  A    between atoms: _283  and  _285
REMARK  112  A    between atoms: _285  and  _286
REMARK  113  A    between atoms: _285  and  _288
REMARK  114  A    between atoms: _288  and  _289
REMARK  115  A    between atoms: _291  and  _293
REMARK  116  A    between atoms: _293  and  _294
REMARK  117  A    between atoms: _293  and  _296
REMARK  118  A    between atoms: _296  and  _297
REMARK  119  A    between atoms: _297  and  _408
REMARK  120  A    between atoms: _298  and  _300
REMARK  121  A    between atoms: _300  and  _301
REMARK  122  A    between atoms: _300  and  _303
REMARK  123  A    between atoms: _303  and  _304
REMARK  124  A    between atoms: _304  and  _305
REMARK  125  A    between atoms: _310  and  _312
REMARK  126  A    between atoms: _312  and  _313
REMARK  127  A    between atoms: _315  and  _317
REMARK  128  A    between atoms: _317  and  _318
REMARK  129  A    between atoms: _317  and  _320
REMARK  130  A    between atoms: _320  and  _321
REMARK  131  A    between atoms: _324  and  _326
REMARK  132  A    between atoms: _326  and  _327
REMARK  133  A    between atoms: _326  and  _329
REMARK  134  A    between atoms: _329  and  _330
REMARK  135  A    between atoms: _332  and  _334
REMARK  136  A    between atoms: _334  and  _335
REMARK  137  A    between atoms: _337  and  _339
REMARK  138  A    between atoms: _339  and  _340
REMARK  139  A    between atoms: _342  and  _344
REMARK  140  A    between atoms: _344  and  _345
REMARK  141  A    between atoms: _344  and  _347
REMARK  142  A    between atoms: _350  and  _352
REMARK  143  A    between atoms: _352  and  _353
REMARK  144  A    between atoms: _352  and  _355
REMARK  145  A    between atoms: _358  and  _360
REMARK  146  A    between atoms: _360  and  _361
REMARK  147  A    between atoms: _360  and  _363
REMARK  148  A    between atoms: _363  and  _364
REMARK  149  A    between atoms: _366  and  _368
REMARK  150  A    between atoms: _368  and  _369
REMARK  151  A    between atoms: _368  and  _371
REMARK  152  A    between atoms: _371  and  _372
REMARK  153  A    between atoms: _382  and  _384
REMARK  154  A    between atoms: _384  and  _385
REMARK  155  A    between atoms: _387  and  _389
REMARK  156  A    between atoms: _389  and  _390
REMARK  157  A    between atoms: _389  and  _392
REMARK  158  A    between atoms: _392  and  _393
REMARK  159  A    between atoms: _393  and  _394
REMARK  160  A    between atoms: _397  and  _399
REMARK  161  A    between atoms: _399  and  _400
REMARK  162  A    between atoms: _402  and  _404
REMARK  163  A    between atoms: _404  and  _405
REMARK  164  A    between atoms: _404  and  _407
REMARK  165  A    between atoms: _407  and  _408
REMARK  166  A    between atoms: _409  and  _411
REMARK  167  A    between atoms: _411  and  _412
REMARK  168  A    between atoms: _415  and  _417
REMARK  169  A    between atoms: _417  and  _418
REMARK  170  A    between atoms: _417  and  _420
REMARK  171  A    between atoms: _420  and  _421
REMARK  172  A    between atoms: _421  and  _422
REMARK  173  A    between atoms: _427  and  _429
REMARK  174  A    between atoms: _429  and  _430
REMARK  175  A    between atoms: _429  and  _432
REMARK  176  A    between atoms: _432  and  _433
REMARK  177  A    between atoms: _438  and  _440
REMARK  178  A    between atoms: _440  and  _441
REMARK  179  A    between atoms: _440  and  _443
REMARK  180  A    between atoms: _443  and  _444
REMARK  181  A    between atoms: _444  and  _445
REMARK  182  A    between atoms: _445  and  _446
REMARK  183  A    between atoms: _456  and  _457
REMARK  184  A    between atoms: _462  and  _464
REMARK  185  A    between atoms: _464  and  _465
REMARK  186  A    between atoms: _467  and  _469
REMARK  187  A    between atoms: _469  and  _470
REMARK  188  A    between atoms: _469  and  _472
REMARK  189  A    between atoms: _472  and  _473
REMARK  190  A    between atoms: _476  and  _478
REMARK  191  A    between atoms: _478  and  _479
REMARK  192  A    between atoms: _478  and  _481
REMARK  193  A    between atoms: _481  and  _482
REMARK  194  A    between atoms: _487  and  _488
REMARK  195  A    between atoms: _490  and  _492
REMARK  196  A    between atoms: _492  and  _493
REMARK  197  A    between atoms: _496  and  _497
REMARK  198  A    between atoms: _502  and  _504
REMARK  199  A    between atoms: _504  and  _505
REMARK  200  A    between atoms: _504  and  _507
REMARK  201  A    between atoms: _507  and  _508
REMARK  202  A    between atoms: _511  and  _513
REMARK  203  A    between atoms: _513  and  _514
REMARK  204  A    between atoms: _513  and  _516
REMARK  205  A    between atoms: _519  and  _521
REMARK  206  A    between atoms: _521  and  _522
REMARK  207  A    between atoms: _521  and  _524
REMARK  208  A    between atoms: _524  and  _525
REMARK  209  A    between atoms: _533  and  _534
REMARK  210  A    between atoms: _533  and  _536
REMARK  211  A    between atoms: _536  and  _537
REMARK  212  A    between atoms: _542  and  _543
REMARK  213  A    between atoms: _545  and  _547
REMARK  214  A    between atoms: _547  and  _548
REMARK  215  A    between atoms: _547  and  _550
REMARK  216  A    between atoms: _550  and  _551
REMARK  217  A    between atoms: _554  and  _556
REMARK  218  A    between atoms: _556  and  _557
REMARK  219  A    between atoms: _556  and  _559
REMARK  220  A    between atoms: _559  and  _560
REMARK  221  A    between atoms: _560  and  _561
REMARK  222  A    between atoms: _566  and  _568
REMARK  223  A    between atoms: _568  and  _569
REMARK  224  A    between atoms: _568  and  _571
REMARK  225  A    between atoms: _571  and  _572
REMARK                            x       y       z     vdW  Elec       q    Type
REMARK                         _______ _______ _______ _____ _____    ______ ____
ROOT
ATOM      1  O   HOH     1      -8.047  56.297  -1.019  0.00  0.00    +0.000 OA
ENDROOT
TORSDOF 0
REMARK  Name = ../refined-set-2016/4a6l/4a6l_pocket.pdb
REMARK  225 active torsions:
REMARK  status: ('A' for Active; 'I' for Inactive)
REMARK    1  A    between atoms: _1  and  _5
REMARK    2  A    between atoms: _5  and  _6
REMARK    3  A    between atoms: _5  and  _8
REMARK    4  A    between atoms: _8  and  _9
REMARK    5  A    between atoms: _12  and  _14
REMARK    6  A    between atoms: _14  and  _15
REMARK    7  A    between atoms: _14  and  _17
REMARK    8  A    between atoms: _20  and  _22
REMARK    9  A    between atoms: _22  and  _23
REMARK   10  A    between atoms: _22  and  _25
REMARK   11  A    between atoms: _25  and  _26
REMARK   12  A    between atoms: _31  and  _33
REMARK   13  A    between atoms: _33  and  _34
REMARK   14  A    between atoms: _37  and  _39
REMARK   15  A    between atoms: _39  and  _40
REMARK   16  A    between atoms: _39  and  _42
REMARK   17  A    between atoms: _42  and  _43
REMARK   18  A    between atoms: _43  and  _44
REMARK   19  A    between atoms: _49  and  _51
REMARK   20  A    between atoms: _51  and  _52
REMARK   21  A    between atoms: _51  and  _54
REMARK   22  A    between atoms: _57  and  _59
REMARK   23  A    between atoms: _59  and  _60
REMARK   24  A    between atoms: _59  and  _62
REMARK   25  A    between atoms: _62  and  _63
REMARK   26  A    between atoms: _66  and  _68
REMARK   27  A    between atoms: _68  and  _69
REMARK   28  A    between atoms: _68  and  _71
REMARK   29  A    between atoms: _71  and  _72
REMARK   30  A    between atoms: _77  and  _79
REMARK   31  A    between atoms: _79  and  _80
REMARK   32  A    between atoms: _79  and  _82
REMARK   33  A    between atoms: _82  and  _83
REMARK   34  A    between atoms: _86  and  _88
REMARK   35  A    between atoms: _88  and  _89
REMARK   36  A    between atoms: _88  and  _91
REMARK   37  A    between atoms: _91  and  _92
REMARK   38  A    between atoms: _95  and  _97
REMARK   39  A    between atoms: _97  and  _98
REMARK   40  A    between atoms: _97  and  _100
REMARK   41  A    between atoms: _100  and  _101
REMARK   42  A    between atoms: _101  and  _102
REMARK   43  A    between atoms: _102  and  _103
REMARK   44  A    between atoms: _103  and  _104
REMARK   45  A    between atoms: _108  and  _110
REMARK   46  A    between atoms: _110  and  _111
REMARK   47  A    between atoms: _110  and  _113
REMARK   48  A    between atoms: _113  and  _114
REMARK   49  A    between atoms: _119  and  _120
REMARK   50  A    between atoms: _122  and  _124
REMARK   51  A    between atoms: _124  and  _125
REMARK   52  A    between atoms: _124  and  _127
REMARK   53  A    between atoms: _127  and  _128
REMARK   54  A    between atoms: _133  and  _135
REMARK   55  A    between atoms: _135  and  _136
REMARK   56  A    between atoms: _135  and  _138
REMARK   57  A    between atoms: _138  and  _139
REMARK   58  A    between atoms: _142  and  _144
REMARK   59  A    between atoms: _144  and  _145
REMARK   60  A    between atoms: _147  and  _149
REMARK   61  A    between atoms: _149  and  _150
REMARK   62  A    between atoms: _153  and  _155
REMARK   63  A    between atoms: _155  and  _156
REMARK   64  A    between atoms: _155  and  _158
REMARK   65  A    between atoms: _158  and  _159
REMARK   66  A    between atoms: _164  and  _165
REMARK   67  A    between atoms: _167  and  _169
REMARK   68  A    between atoms: _169  and  _170
REMARK   69  A    between atoms: _169  and  _172
REMARK   70  A    between atoms: _172  and  _173
REMARK   71  A    between atoms: _176  and  _178
REMARK   72  A    between atoms: _178  and  _179
REMARK   73  A    between atoms: _178  and  _181
REMARK   74  A    between atoms: _184  and  _186
REMARK   75  A    between atoms: _186  and  _187
REMARK   76  A    between atoms: _186  and  _189
REMARK   77  A    between atoms: _189  and  _190
REMARK   78  A    between atoms: _190  and  _191
REMARK   79  A    between atoms: _191  and  _192
REMARK   80  A    between atoms: _201  and  _203
REMARK   81  A    between atoms: _203  and  _204
REMARK   82  A    between atoms: _203  and  _206
REMARK   83  A    between atoms: _206  and  _207
REMARK   84  A    between atoms: _210  and  _212
REMARK   85  A    between atoms: _212  and  _213
REMARK   86  A    between atoms: _212  and  _215
REMARK   87  A    between atoms: _218  and  _220
REMARK   88  A    between atoms: _220  and  _221
REMARK   89  A    between atoms: _220  and  _223
REMARK   90  A    between atoms: _223  and  _224
REMARK   91  A    between atoms: _224  and  _225
REMARK   92  A    between atoms: _225  and  _226
REMARK   93  A    between atoms: _235  and  _237
REMARK   94  A    between atoms: _237  and  _238
REMARK   95  A    between atoms: _241  and  _243
REMARK   96  A    between atoms: _243  and  _244
REMARK   97  A    between atoms: _246  and  _248
REMARK   98  A    between atoms: _248  and  _249
REMARK   99  A    between atoms: _248  and  _251
REMARK  100  A    between atoms: _251  and  _252
REMARK  101  A    between atoms: _257  and  _259
REMARK  102  A    between atoms: _259  and  _260
REMARK  103  A    between atoms: _259  and  _262
REMARK  104  A    between atoms: _262  and  _263
REMARK  105  A    between atoms: _263  and  _264
REMARK  106  A    between atoms: _264  and  _265
REMARK  107  A    between atoms: _274  and  _276
REMARK  108  A    between atoms: _276  and  _277
REMARK  109  A    between atoms: _276  and  _279
REMARK  110  A    between atoms: _279  and  _280
REMARK  111  A    between atoms: _283  and  _285
REMARK  112  A    between atoms: _285  and  _286
REMARK  113  A    between atoms: _285  and  _288
REMARK  114  A    between atoms: _288  and  _289
REMARK  115  A    between atoms: _291  and  _293
REMARK  116  A    between atoms: _293  and  _294
REMARK  117  A    between atoms: _293  and  _296
REMARK  118  A    between atoms: _296  and  _297
REMARK  119  A    between atoms: _297  and  _408
REMARK  120  A    between atoms: _298  and  _300
REMARK  121  A    between atoms: _300  and  _301
REMARK  122  A    between atoms: _300  and  _303
REMARK  123  A    between atoms: _303  and  _304
REMARK  124  A    between atoms: _304  and  _305
REMARK  125  A    between atoms: _310  and  _312
REMARK  126  A    between atoms: _312  and  _313
REMARK  127  A    between atoms: _315  and  _317
REMARK  128  A    between atoms: _317  and  _318
REMARK  129  A    between atoms: _317  and  _320
REMARK  130  A    between atoms: _320  and  _321
REMARK  131  A    between atoms: _324  and  _326
REMARK  132  A    between atoms: _326  and  _327
REMARK  133  A    between atoms: _326  and  _329
REMARK  134  A    between atoms: _329  and  _330
REMARK  135  A    between atoms: _332  and  _334
REMARK  136  A    between atoms: _334  and  _335
REMARK  137  A    between atoms: _337  and  _339
REMARK  138  A    between atoms: _339  and  _340
REMARK  139  A    between atoms: _342  and  _344
REMARK  140  A    between atoms: _344  and  _345
REMARK  141  A    between atoms: _344  and  _347
REMARK  142  A    between atoms: _350  and  _352
REMARK  143  A    between atoms: _352  and  _353
REMARK  144  A    between atoms: _352  and  _355
REMARK  145  A    between atoms: _358  and  _360
REMARK  146  A    between atoms: _360  and  _361
REMARK  147  A    between atoms: _360  and  _363
REMARK  148  A    between atoms: _363  and  _364
REMARK  149  A    between atoms: _366  and  _368
REMARK  150  A    between atoms: _368  and  _369
REMARK  151  A    between atoms: _368  and  _371
REMARK  152  A    between atoms: _371  and  _372
REMARK  153  A    between atoms: _382  and  _384
REMARK  154  A    between atoms: _384  and  _385
REMARK  155  A    between atoms: _387  and  _389
REMARK  156  A    between atoms: _389  and  _390
REMARK  157  A    between atoms: _389  and  _392
REMARK  158  A    between atoms: _392  and  _393
REMARK  159  A    between atoms: _393  and  _394
REMARK  160  A    between atoms: _397  and  _399
REMARK  161  A    between atoms: _399  and  _400
REMARK  162  A    between atoms: _402  and  _404
REMARK  163  A    between atoms: _404  and  _405
REMARK  164  A    between atoms: _404  and  _407
REMARK  165  A    between atoms: _407  and  _408
REMARK  166  A    between atoms: _409  and  _411
REMARK  167  A    between atoms: _411  and  _412
REMARK  168  A    between atoms: _415  and  _417
REMARK  169  A    between atoms: _417  and  _418
REMARK  170  A    between atoms: _417  and  _420
REMARK  171  A    between atoms: _420  and  _421
REMARK  172  A    between atoms: _421  and  _422
REMARK  173  A    between atoms: _427  and  _429
REMARK  174  A    between atoms: _429  and  _430
REMARK  175  A    between atoms: _429  and  _432
REMARK  176  A    between atoms: _432  and  _433
REMARK  177  A    between atoms: _438  and  _440
REMARK  178  A    between atoms: _440  and  _441
REMARK  179  A    between atoms: _440  and  _443
REMARK  180  A    between atoms: _443  and  _444
REMARK  181  A    between atoms: _444  and  _445
REMARK  182  A    between atoms: _445  and  _446
REMARK  183  A    between atoms: _456  and  _457
REMARK  184  A    between atoms: _462  and  _464
REMARK  185  A    between atoms: _464  and  _465
REMARK  186  A    between atoms: _467  and  _469
REMARK  187  A    between atoms: _469  and  _470
REMARK  188  A    between atoms: _469  and  _472
REMARK  189  A    between atoms: _472  and  _473
REMARK  190  A    between atoms: _476  and  _478
REMARK  191  A    between atoms: _478  and  _479
REMARK  192  A    between atoms: _478  and  _481
REMARK  193  A    between atoms: _481  and  _482
REMARK  194  A    between atoms: _487  and  _488
REMARK  195  A    between atoms: _490  and  _492
REMARK  196  A    between atoms: _492  and  _493
REMARK  197  A    between atoms: _496  and  _497
REMARK  198  A    between atoms: _502  and  _504
REMARK  199  A    between atoms: _504  and  _505
REMARK  200  A    between atoms: _504  and  _507
REMARK  201  A    between atoms: _507  and  _508
REMARK  202  A    between atoms: _511  and  _513
REMARK  203  A    between atoms: _513  and  _514
REMARK  204  A    between atoms: _513  and  _516
REMARK  205  A    between atoms: _519  and  _521
REMARK  206  A    between atoms: _521  and  _522
REMARK  207  A    between atoms: _521  and  _524
REMARK  208  A    between atoms: _524  and  _525
REMARK  209  A    between atoms: _533  and  _534
REMARK  210  A    between atoms: _533  and  _536
REMARK  211  A    between atoms: _536  and  _537
REMARK  212  A    between atoms: _542  and  _543
REMARK  213  A    between atoms: _545  and  _547
REMARK  214  A    between atoms: _547  and  _548
REMARK  215  A    between atoms: _547  and  _550
REMARK  216  A    between atoms: _550  and  _551
REMARK  217  A    between atoms: _554  and  _556
REMARK  218  A    between atoms: _556  and  _557
REMARK  219  A    between atoms: _556  and  _559
REMARK  220  A    between atoms: _559  and  _560
REMARK  221  A    between atoms: _560  and  _561
REMARK  222  A    between atoms: _566  and  _568
REMARK  223  A    between atoms: _568  and  _569
REMARK  224  A    between atoms: _568  and  _571
REMARK  225  A    between atoms: _571  and  _572
REMARK                            x       y       z     vdW  Elec       q    Type
REMARK                         _______ _______ _______ _____ _____    ______ ____
ROOT
ATOM      1  O   HOH     1       0.369  56.425  -7.390  0.00  0.00    +0.000 OA
ENDROOT
TORSDOF 0
REMARK  Name = ../refined-set-2016/4a6l/4a6l_pocket.pdb
REMARK  225 active torsions:
REMARK  status: ('A' for Active; 'I' for Inactive)
REMARK    1  A    between atoms: _1  and  _5
REMARK    2  A    between atoms: _5  and  _6
REMARK    3  A    between atoms: _5  and  _8
REMARK    4  A    between atoms: _8  and  _9
REMARK    5  A    between atoms: _12  and  _14
REMARK    6  A    between atoms: _14  and  _15
REMARK    7  A    between atoms: _14  and  _17
REMARK    8  A    between atoms: _20  and  _22
REMARK    9  A    between atoms: _22  and  _23
REMARK   10  A    between atoms: _22  and  _25
REMARK   11  A    between atoms: _25  and  _26
REMARK   12  A    between atoms: _31  and  _33
REMARK   13  A    between atoms: _33  and  _34
REMARK   14  A    between atoms: _37  and  _39
REMARK   15  A    between atoms: _39  and  _40
REMARK   16  A    between atoms: _39  and  _42
REMARK   17  A    between atoms: _42  and  _43
REMARK   18  A    between atoms: _43  and  _44
REMARK   19  A    between atoms: _49  and  _51
REMARK   20  A    between atoms: _51  and  _52
REMARK   21  A    between atoms: _51  and  _54
REMARK   22  A    between atoms: _57  and  _59
REMARK   23  A    between atoms: _59  and  _60
REMARK   24  A    between atoms: _59  and  _62
REMARK   25  A    between atoms: _62  and  _63
REMARK   26  A    between atoms: _66  and  _68
REMARK   27  A    between atoms: _68  and  _69
REMARK   28  A    between atoms: _68  and  _71
REMARK   29  A    between atoms: _71  and  _72
REMARK   30  A    between atoms: _77  and  _79
REMARK   31  A    between atoms: _79  and  _80
REMARK   32  A    between atoms: _79  and  _82
REMARK   33  A    between atoms: _82  and  _83
REMARK   34  A    between atoms: _86  and  _88
REMARK   35  A    between atoms: _88  and  _89
REMARK   36  A    between atoms: _88  and  _91
REMARK   37  A    between atoms: _91  and  _92
REMARK   38  A    between atoms: _95  and  _97
REMARK   39  A    between atoms: _97  and  _98
REMARK   40  A    between atoms: _97  and  _100
REMARK   41  A    between atoms: _100  and  _101
REMARK   42  A    between atoms: _101  and  _102
REMARK   43  A    between atoms: _102  and  _103
REMARK   44  A    between atoms: _103  and  _104
REMARK   45  A    between atoms: _108  and  _110
REMARK   46  A    between atoms: _110  and  _111
REMARK   47  A    between atoms: _110  and  _113
REMARK   48  A    between atoms: _113  and  _114
REMARK   49  A    between atoms: _119  and  _120
REMARK   50  A    between atoms: _122  and  _124
REMARK   51  A    between atoms: _124  and  _125
REMARK   52  A    between atoms: _124  and  _127
REMARK   53  A    between atoms: _127  and  _128
REMARK   54  A    between atoms: _133  and  _135
REMARK   55  A    between atoms: _135  and  _136
REMARK   56  A    between atoms: _135  and  _138
REMARK   57  A    between atoms: _138  and  _139
REMARK   58  A    between atoms: _142  and  _144
REMARK   59  A    between atoms: _144  and  _145
REMARK   60  A    between atoms: _147  and  _149
REMARK   61  A    between atoms: _149  and  _150
REMARK   62  A    between atoms: _153  and  _155
REMARK   63  A    between atoms: _155  and  _156
REMARK   64  A    between atoms: _155  and  _158
REMARK   65  A    between atoms: _158  and  _159
REMARK   66  A    between atoms: _164  and  _165
REMARK   67  A    between atoms: _167  and  _169
REMARK   68  A    between atoms: _169  and  _170
REMARK   69  A    between atoms: _169  and  _172
REMARK   70  A    between atoms: _172  and  _173
REMARK   71  A    between atoms: _176  and  _178
REMARK   72  A    between atoms: _178  and  _179
REMARK   73  A    between atoms: _178  and  _181
REMARK   74  A    between atoms: _184  and  _186
REMARK   75  A    between atoms: _186  and  _187
REMARK   76  A    between atoms: _186  and  _189
REMARK   77  A    between atoms: _189  and  _190
REMARK   78  A    between atoms: _190  and  _191
REMARK   79  A    between atoms: _191  and  _192
REMARK   80  A    between atoms: _201  and  _203
REMARK   81  A    between atoms: _203  and  _204
REMARK   82  A    between atoms: _203  and  _206
REMARK   83  A    between atoms: _206  and  _207
REMARK   84  A    between atoms: _210  and  _212
REMARK   85  A    between atoms: _212  and  _213
REMARK   86  A    between atoms: _212  and  _215
REMARK   87  A    between atoms: _218  and  _220
REMARK   88  A    between atoms: _220  and  _221
REMARK   89  A    between atoms: _220  and  _223
REMARK   90  A    between atoms: _223  and  _224
REMARK   91  A    between atoms: _224  and  _225
REMARK   92  A    between atoms: _225  and  _226
REMARK   93  A    between atoms: _235  and  _237
REMARK   94  A    between atoms: _237  and  _238
REMARK   95  A    between atoms: _241  and  _243
REMARK   96  A    between atoms: _243  and  _244
REMARK   97  A    between atoms: _246  and  _248
REMARK   98  A    between atoms: _248  and  _249
REMARK   99  A    between atoms: _248  and  _251
REMARK  100  A    between atoms: _251  and  _252
REMARK  101  A    between atoms: _257  and  _259
REMARK  102  A    between atoms: _259  and  _260
REMARK  103  A    between atoms: _259  and  _262
REMARK  104  A    between atoms: _262  and  _263
REMARK  105  A    between atoms: _263  and  _264
REMARK  106  A    between atoms: _264  and  _265
REMARK  107  A    between atoms: _274  and  _276
REMARK  108  A    between atoms: _276  and  _277
REMARK  109  A    between atoms: _276  and  _279
REMARK  110  A    between atoms: _279  and  _280
REMARK  111  A    between atoms: _283  and  _285
REMARK  112  A    between atoms: _285  and  _286
REMARK  113  A    between atoms: _285  and  _288
REMARK  114  A    between atoms: _288  and  _289
REMARK  115  A    between atoms: _291  and  _293
REMARK  116  A    between atoms: _293  and  _294
REMARK  117  A    between atoms: _293  and  _296
REMARK  118  A    between atoms: _296  and  _297
REMARK  119  A    between atoms: _297  and  _408
REMARK  120  A    between atoms: _298  and  _300
REMARK  121  A    between atoms: _300  and  _301
REMARK  122  A    between atoms: _300  and  _303
REMARK  123  A    between atoms: _303  and  _304
REMARK  124  A    between atoms: _304  and  _305
REMARK  125  A    between atoms: _310  and  _312
REMARK  126  A    between atoms: _312  and  _313
REMARK  127  A    between atoms: _315  and  _317
REMARK  128  A    between atoms: _317  and  _318
REMARK  129  A    between atoms: _317  and  _320
REMARK  130  A    between atoms: _320  and  _321
REMARK  131  A    between atoms: _324  and  _326
REMARK  132  A    between atoms: _326  and  _327
REMARK  133  A    between atoms: _326  and  _329
REMARK  134  A    between atoms: _329  and  _330
REMARK  135  A    between atoms: _332  and  _334
REMARK  136  A    between atoms: _334  and  _335
REMARK  137  A    between atoms: _337  and  _339
REMARK  138  A    between atoms: _339  and  _340
REMARK  139  A    between atoms: _342  and  _344
REMARK  140  A    between atoms: _344  and  _345
REMARK  141  A    between atoms: _344  and  _347
REMARK  142  A    between atoms: _350  and  _352
REMARK  143  A    between atoms: _352  and  _353
REMARK  144  A    between atoms: _352  and  _355
REMARK  145  A    between atoms: _358  and  _360
REMARK  146  A    between atoms: _360  and  _361
REMARK  147  A    between atoms: _360  and  _363
REMARK  148  A    between atoms: _363  and  _364
REMARK  149  A    between atoms: _366  and  _368
REMARK  150  A    between atoms: _368  and  _369
REMARK  151  A    between atoms: _368  and  _371
REMARK  152  A    between atoms: _371  and  _372
REMARK  153  A    between atoms: _382  and  _384
REMARK  154  A    between atoms: _384  and  _385
REMARK  155  A    between atoms: _387  and  _389
REMARK  156  A    between atoms: _389  and  _390
REMARK  157  A    between atoms: _389  and  _392
REMARK  158  A    between atoms: _392  and  _393
REMARK  159  A    between atoms: _393  and  _394
REMARK  160  A    between atoms: _397  and  _399
REMARK  161  A    between atoms: _399  and  _400
REMARK  162  A    between atoms: _402  and  _404
REMARK  163  A    between atoms: _404  and  _405
REMARK  164  A    between atoms: _404  and  _407
REMARK  165  A    between atoms: _407  and  _408
REMARK  166  A    between atoms: _409  and  _411
REMARK  167  A    between atoms: _411  and  _412
REMARK  168  A    between atoms: _415  and  _417
REMARK  169  A    between atoms: _417  and  _418
REMARK  170  A    between atoms: _417  and  _420
REMARK  171  A    between atoms: _420  and  _421
REMARK  172  A    between atoms: _421  and  _422
REMARK  173  A    between atoms: _427  and  _429
REMARK  174  A    between atoms: _429  and  _430
REMARK  175  A    between atoms: _429  and  _432
REMARK  176  A    between atoms: _432  and  _433
REMARK  177  A    between atoms: _438  and  _440
REMARK  178  A    between atoms: _440  and  _441
REMARK  179  A    between atoms: _440  and  _443
REMARK  180  A    between atoms: _443  and  _444
REMARK  181  A    between atoms: _444  and  _445
REMARK  182  A    between atoms: _445  and  _446
REMARK  183  A    between atoms: _456  and  _457
REMARK  184  A    between atoms: _462  and  _464
REMARK  185  A    between atoms: _464  and  _465
REMARK  186  A    between atoms: _467  and  _469
REMARK  187  A    between atoms: _469  and  _470
REMARK  188  A    between atoms: _469  and  _472
REMARK  189  A    between atoms: _472  and  _473
REMARK  190  A    between atoms: _476  and  _478
REMARK  191  A    between atoms: _478  and  _479
REMARK  192  A    between atoms: _478  and  _481
REMARK  193  A    between atoms: _481  and  _482
REMARK  194  A    between atoms: _487  and  _488
REMARK  195  A    between atoms: _490  and  _492
REMARK  196  A    between atoms: _492  and  _493
REMARK  197  A    between atoms: _496  and  _497
REMARK  198  A    between atoms: _502  and  _504
REMARK  199  A    between atoms: _504  and  _505
REMARK  200  A    between atoms: _504  and  _507
REMARK  201  A    between atoms: _507  and  _508
REMARK  202  A    between atoms: _511  and  _513
REMARK  203  A    between atoms: _513  and  _514
REMARK  204  A    between atoms: _513  and  _516
REMARK  205  A    between atoms: _519  and  _521
REMARK  206  A    between atoms: _521  and  _522
REMARK  207  A    between atoms: _521  and  _524
REMARK  208  A    between atoms: _524  and  _525
REMARK  209  A    between atoms: _533  and  _534
REMARK  210  A    between atoms: _533  and  _536
REMARK  211  A    between atoms: _536  and  _537
REMARK  212  A    between atoms: _542  and  _543
REMARK  213  A    between atoms: _545  and  _547
REMARK  214  A    between atoms: _547  and  _548
REMARK  215  A    between atoms: _547  and  _550
REMARK  216  A    between atoms: _550  and  _551
REMARK  217  A    between atoms: _554  and  _556
REMARK  218  A    between atoms: _556  and  _557
REMARK  219  A    between atoms: _556  and  _559
REMARK  220  A    between atoms: _559  and  _560
REMARK  221  A    between atoms: _560  and  _561
REMARK  222  A    between atoms: _566  and  _568
REMARK  223  A    between atoms: _568  and  _569
REMARK  224  A    between atoms: _568  and  _571
REMARK  225  A    between atoms: _571  and  _572
REMARK                            x       y       z     vdW  Elec       q    Type
REMARK                         _______ _______ _______ _____ _____    ______ ____
ROOT
ATOM      1  O   HOH     1      -6.523  59.993  -9.783  0.00  0.00    +0.000 OA
ENDROOT
TORSDOF 0
REMARK  Name = ../refined-set-2016/4a6l/4a6l_pocket.pdb
REMARK  225 active torsions:
REMARK  status: ('A' for Active; 'I' for Inactive)
REMARK    1  A    between atoms: _1  and  _5
REMARK    2  A    between atoms: _5  and  _6
REMARK    3  A    between atoms: _5  and  _8
REMARK    4  A    between atoms: _8  and  _9
REMARK    5  A    between atoms: _12  and  _14
REMARK    6  A    between atoms: _14  and  _15
REMARK    7  A    between atoms: _14  and  _17
REMARK    8  A    between atoms: _20  and  _22
REMARK    9  A    between atoms: _22  and  _23
REMARK   10  A    between atoms: _22  and  _25
REMARK   11  A    between atoms: _25  and  _26
REMARK   12  A    between atoms: _31  and  _33
REMARK   13  A    between atoms: _33  and  _34
REMARK   14  A    between atoms: _37  and  _39
REMARK   15  A    between atoms: _39  and  _40
REMARK   16  A    between atoms: _39  and  _42
REMARK   17  A    between atoms: _42  and  _43
REMARK   18  A    between atoms: _43  and  _44
REMARK   19  A    between atoms: _49  and  _51
REMARK   20  A    between atoms: _51  and  _52
REMARK   21  A    between atoms: _51  and  _54
REMARK   22  A    between atoms: _57  and  _59
REMARK   23  A    between atoms: _59  and  _60
REMARK   24  A    between atoms: _59  and  _62
REMARK   25  A    between atoms: _62  and  _63
REMARK   26  A    between atoms: _66  and  _68
REMARK   27  A    between atoms: _68  and  _69
REMARK   28  A    between atoms: _68  and  _71
REMARK   29  A    between atoms: _71  and  _72
REMARK   30  A    between atoms: _77  and  _79
REMARK   31  A    between atoms: _79  and  _80
REMARK   32  A    between atoms: _79  and  _82
REMARK   33  A    between atoms: _82  and  _83
REMARK   34  A    between atoms: _86  and  _88
REMARK   35  A    between atoms: _88  and  _89
REMARK   36  A    between atoms: _88  and  _91
REMARK   37  A    between atoms: _91  and  _92
REMARK   38  A    between atoms: _95  and  _97
REMARK   39  A    between atoms: _97  and  _98
REMARK   40  A    between atoms: _97  and  _100
REMARK   41  A    between atoms: _100  and  _101
REMARK   42  A    between atoms: _101  and  _102
REMARK   43  A    between atoms: _102  and  _103
REMARK   44  A    between atoms: _103  and  _104
REMARK   45  A    between atoms: _108  and  _110
REMARK   46  A    between atoms: _110  and  _111
REMARK   47  A    between atoms: _110  and  _113
REMARK   48  A    between atoms: _113  and  _114
REMARK   49  A    between atoms: _119  and  _120
REMARK   50  A    between atoms: _122  and  _124
REMARK   51  A    between atoms: _124  and  _125
REMARK   52  A    between atoms: _124  and  _127
REMARK   53  A    between atoms: _127  and  _128
REMARK   54  A    between atoms: _133  and  _135
REMARK   55  A    between atoms: _135  and  _136
REMARK   56  A    between atoms: _135  and  _138
REMARK   57  A    between atoms: _138  and  _139
REMARK   58  A    between atoms: _142  and  _144
REMARK   59  A    between atoms: _144  and  _145
REMARK   60  A    between atoms: _147  and  _149
REMARK   61  A    between atoms: _149  and  _150
REMARK   62  A    between atoms: _153  and  _155
REMARK   63  A    between atoms: _155  and  _156
REMARK   64  A    between atoms: _155  and  _158
REMARK   65  A    between atoms: _158  and  _159
REMARK   66  A    between atoms: _164  and  _165
REMARK   67  A    between atoms: _167  and  _169
REMARK   68  A    between atoms: _169  and  _170
REMARK   69  A    between atoms: _169  and  _172
REMARK   70  A    between atoms: _172  and  _173
REMARK   71  A    between atoms: _176  and  _178
REMARK   72  A    between atoms: _178  and  _179
REMARK   73  A    between atoms: _178  and  _181
REMARK   74  A    between atoms: _184  and  _186
REMARK   75  A    between atoms: _186  and  _187
REMARK   76  A    between atoms: _186  and  _189
REMARK   77  A    between atoms: _189  and  _190
REMARK   78  A    between atoms: _190  and  _191
REMARK   79  A    between atoms: _191  and  _192
REMARK   80  A    between atoms: _201  and  _203
REMARK   81  A    between atoms: _203  and  _204
REMARK   82  A    between atoms: _203  and  _206
REMARK   83  A    between atoms: _206  and  _207
REMARK   84  A    between atoms: _210  and  _212
REMARK   85  A    between atoms: _212  and  _213
REMARK   86  A    between atoms: _212  and  _215
REMARK   87  A    between atoms: _218  and  _220
REMARK   88  A    between atoms: _220  and  _221
REMARK   89  A    between atoms: _220  and  _223
REMARK   90  A    between atoms: _223  and  _224
REMARK   91  A    between atoms: _224  and  _225
REMARK   92  A    between atoms: _225  and  _226
REMARK   93  A    between atoms: _235  and  _237
REMARK   94  A    between atoms: _237  and  _238
REMARK   95  A    between atoms: _241  and  _243
REMARK   96  A    between atoms: _243  and  _244
REMARK   97  A    between atoms: _246  and  _248
REMARK   98  A    between atoms: _248  and  _249
REMARK   99  A    between atoms: _248  and  _251
REMARK  100  A    between atoms: _251  and  _252
REMARK  101  A    between atoms: _257  and  _259
REMARK  102  A    between atoms: _259  and  _260
REMARK  103  A    between atoms: _259  and  _262
REMARK  104  A    between atoms: _262  and  _263
REMARK  105  A    between atoms: _263  and  _264
REMARK  106  A    between atoms: _264  and  _265
REMARK  107  A    between atoms: _274  and  _276
REMARK  108  A    between atoms: _276  and  _277
REMARK  109  A    between atoms: _276  and  _279
REMARK  110  A    between atoms: _279  and  _280
REMARK  111  A    between atoms: _283  and  _285
REMARK  112  A    between atoms: _285  and  _286
REMARK  113  A    between atoms: _285  and  _288
REMARK  114  A    between atoms: _288  and  _289
REMARK  115  A    between atoms: _291  and  _293
REMARK  116  A    between atoms: _293  and  _294
REMARK  117  A    between atoms: _293  and  _296
REMARK  118  A    between atoms: _296  and  _297
REMARK  119  A    between atoms: _297  and  _408
REMARK  120  A    between atoms: _298  and  _300
REMARK  121  A    between atoms: _300  and  _301
REMARK  122  A    between atoms: _300  and  _303
REMARK  123  A    between atoms: _303  and  _304
REMARK  124  A    between atoms: _304  and  _305
REMARK  125  A    between atoms: _310  and  _312
REMARK  126  A    between atoms: _312  and  _313
REMARK  127  A    between atoms: _315  and  _317
REMARK  128  A    between atoms: _317  and  _318
REMARK  129  A    between atoms: _317  and  _320
REMARK  130  A    between atoms: _320  and  _321
REMARK  131  A    between atoms: _324  and  _326
REMARK  132  A    between atoms: _326  and  _327
REMARK  133  A    between atoms: _326  and  _329
REMARK  134  A    between atoms: _329  and  _330
REMARK  135  A    between atoms: _332  and  _334
REMARK  136  A    between atoms: _334  and  _335
REMARK  137  A    between atoms: _337  and  _339
REMARK  138  A    between atoms: _339  and  _340
REMARK  139  A    between atoms: _342  and  _344
REMARK  140  A    between atoms: _344  and  _345
REMARK  141  A    between atoms: _344  and  _347
REMARK  142  A    between atoms: _350  and  _352
REMARK  143  A    between atoms: _352  and  _353
REMARK  144  A    between atoms: _352  and  _355
REMARK  145  A    between atoms: _358  and  _360
REMARK  146  A    between atoms: _360  and  _361
REMARK  147  A    between atoms: _360  and  _363
REMARK  148  A    between atoms: _363  and  _364
REMARK  149  A    between atoms: _366  and  _368
REMARK  150  A    between atoms: _368  and  _369
REMARK  151  A    between atoms: _368  and  _371
REMARK  152  A    between atoms: _371  and  _372
REMARK  153  A    between atoms: _382  and  _384
REMARK  154  A    between atoms: _384  and  _385
REMARK  155  A    between atoms: _387  and  _389
REMARK  156  A    between atoms: _389  and  _390
REMARK  157  A    between atoms: _389  and  _392
REMARK  158  A    between atoms: _392  and  _393
REMARK  159  A    between atoms: _393  and  _394
REMARK  160  A    between atoms: _397  and  _399
REMARK  161  A    between atoms: _399  and  _400
REMARK  162  A    between atoms: _402  and  _404
REMARK  163  A    between atoms: _404  and  _405
REMARK  164  A    between atoms: _404  and  _407
REMARK  165  A    between atoms: _407  and  _408
REMARK  166  A    between atoms: _409  and  _411
REMARK  167  A    between atoms: _411  and  _412
REMARK  168  A    between atoms: _415  and  _417
REMARK  169  A    between atoms: _417  and  _418
REMARK  170  A    between atoms: _417  and  _420
REMARK  171  A    between atoms: _420  and  _421
REMARK  172  A    between atoms: _421  and  _422
REMARK  173  A    between atoms: _427  and  _429
REMARK  174  A    between atoms: _429  and  _430
REMARK  175  A    between atoms: _429  and  _432
REMARK  176  A    between atoms: _432  and  _433
REMARK  177  A    between atoms: _438  and  _440
REMARK  178  A    between atoms: _440  and  _441
REMARK  179  A    between atoms: _440  and  _443
REMARK  180  A    between atoms: _443  and  _444
REMARK  181  A    between atoms: _444  and  _445
REMARK  182  A    between atoms: _445  and  _446
REMARK  183  A    between atoms: _456  and  _457
REMARK  184  A    between atoms: _462  and  _464
REMARK  185  A    between atoms: _464  and  _465
REMARK  186  A    between atoms: _467  and  _469
REMARK  187  A    between atoms: _469  and  _470
REMARK  188  A    between atoms: _469  and  _472
REMARK  189  A    between atoms: _472  and  _473
REMARK  190  A    between atoms: _476  and  _478
REMARK  191  A    between atoms: _478  and  _479
REMARK  192  A    between atoms: _478  and  _481
REMARK  193  A    between atoms: _481  and  _482
REMARK  194  A    between atoms: _487  and  _488
REMARK  195  A    between atoms: _490  and  _492
REMARK  196  A    between atoms: _492  and  _493
REMARK  197  A    between atoms: _496  and  _497
REMARK  198  A    between atoms: _502  and  _504
REMARK  199  A    between atoms: _504  and  _505
REMARK  200  A    between atoms: _504  and  _507
REMARK  201  A    between atoms: _507  and  _508
REMARK  202  A    between atoms: _511  and  _513
REMARK  203  A    between atoms: _513  and  _514
REMARK  204  A    between atoms: _513  and  _516
REMARK  205  A    between atoms: _519  and  _521
REMARK  206  A    between atoms: _521  and  _522
REMARK  207  A    between atoms: _521  and  _524
REMARK  208  A    between atoms: _524  and  _525
REMARK  209  A    between atoms: _533  and  _534
REMARK  210  A    between atoms: _533  and  _536
REMARK  211  A    between atoms: _536  and  _537
REMARK  212  A    between atoms: _542  and  _543
REMARK  213  A    between atoms: _545  and  _547
REMARK  214  A    between atoms: _547  and  _548
REMARK  215  A    between atoms: _547  and  _550
REMARK  216  A    between atoms: _550  and  _551
REMARK  217  A    between atoms: _554  and  _556
REMARK  218  A    between atoms: _556  and  _557
REMARK  219  A    between atoms: _556  and  _559
REMARK  220  A    between atoms: _559  and  _560
REMARK  221  A    between atoms: _560  and  _561
REMARK  222  A    between atoms: _566  and  _568
REMARK  223  A    between atoms: _568  and  _569
REMARK  224  A    between atoms: _568  and  _571
REMARK  225  A    between atoms: _571  and  _572
REMARK                            x       y       z     vdW  Elec       q    Type
REMARK                         _______ _______ _______ _____ _____    ______ ____
ROOT
ATOM      1  O   HOH     1     -17.852  49.516 -16.535  0.00  0.00    +0.000 OA
ENDROOT
TORSDOF 0
REMARK  Name = ../refined-set-2016/4a6l/4a6l_pocket.pdb
REMARK  225 active torsions:
REMARK  status: ('A' for Active; 'I' for Inactive)
REMARK    1  A    between atoms: _1  and  _5
REMARK    2  A    between atoms: _5  and  _6
REMARK    3  A    between atoms: _5  and  _8
REMARK    4  A    between atoms: _8  and  _9
REMARK    5  A    between atoms: _12  and  _14
REMARK    6  A    between atoms: _14  and  _15
REMARK    7  A    between atoms: _14  and  _17
REMARK    8  A    between atoms: _20  and  _22
REMARK    9  A    between atoms: _22  and  _23
REMARK   10  A    between atoms: _22  and  _25
REMARK   11  A    between atoms: _25  and  _26
REMARK   12  A    between atoms: _31  and  _33
REMARK   13  A    between atoms: _33  and  _34
REMARK   14  A    between atoms: _37  and  _39
REMARK   15  A    between atoms: _39  and  _40
REMARK   16  A    between atoms: _39  and  _42
REMARK   17  A    between atoms: _42  and  _43
REMARK   18  A    between atoms: _43  and  _44
REMARK   19  A    between atoms: _49  and  _51
REMARK   20  A    between atoms: _51  and  _52
REMARK   21  A    between atoms: _51  and  _54
REMARK   22  A    between atoms: _57  and  _59
REMARK   23  A    between atoms: _59  and  _60
REMARK   24  A    between atoms: _59  and  _62
REMARK   25  A    between atoms: _62  and  _63
REMARK   26  A    between atoms: _66  and  _68
REMARK   27  A    between atoms: _68  and  _69
REMARK   28  A    between atoms: _68  and  _71
REMARK   29  A    between atoms: _71  and  _72
REMARK   30  A    between atoms: _77  and  _79
REMARK   31  A    between atoms: _79  and  _80
REMARK   32  A    between atoms: _79  and  _82
REMARK   33  A    between atoms: _82  and  _83
REMARK   34  A    between atoms: _86  and  _88
REMARK   35  A    between atoms: _88  and  _89
REMARK   36  A    between atoms: _88  and  _91
REMARK   37  A    between atoms: _91  and  _92
REMARK   38  A    between atoms: _95  and  _97
REMARK   39  A    between atoms: _97  and  _98
REMARK   40  A    between atoms: _97  and  _100
REMARK   41  A    between atoms: _100  and  _101
REMARK   42  A    between atoms: _101  and  _102
REMARK   43  A    between atoms: _102  and  _103
REMARK   44  A    between atoms: _103  and  _104
REMARK   45  A    between atoms: _108  and  _110
REMARK   46  A    between atoms: _110  and  _111
REMARK   47  A    between atoms: _110  and  _113
REMARK   48  A    between atoms: _113  and  _114
REMARK   49  A    between atoms: _119  and  _120
REMARK   50  A    between atoms: _122  and  _124
REMARK   51  A    between atoms: _124  and  _125
REMARK   52  A    between atoms: _124  and  _127
REMARK   53  A    between atoms: _127  and  _128
REMARK   54  A    between atoms: _133  and  _135
REMARK   55  A    between atoms: _135  and  _136
REMARK   56  A    between atoms: _135  and  _138
REMARK   57  A    between atoms: _138  and  _139
REMARK   58  A    between atoms: _142  and  _144
REMARK   59  A    between atoms: _144  and  _145
REMARK   60  A    between atoms: _147  and  _149
REMARK   61  A    between atoms: _149  and  _150
REMARK   62  A    between atoms: _153  and  _155
REMARK   63  A    between atoms: _155  and  _156
REMARK   64  A    between atoms: _155  and  _158
REMARK   65  A    between atoms: _158  and  _159
REMARK   66  A    between atoms: _164  and  _165
REMARK   67  A    between atoms: _167  and  _169
REMARK   68  A    between atoms: _169  and  _170
REMARK   69  A    between atoms: _169  and  _172
REMARK   70  A    between atoms: _172  and  _173
REMARK   71  A    between atoms: _176  and  _178
REMARK   72  A    between atoms: _178  and  _179
REMARK   73  A    between atoms: _178  and  _181
REMARK   74  A    between atoms: _184  and  _186
REMARK   75  A    between atoms: _186  and  _187
REMARK   76  A    between atoms: _186  and  _189
REMARK   77  A    between atoms: _189  and  _190
REMARK   78  A    between atoms: _190  and  _191
REMARK   79  A    between atoms: _191  and  _192
REMARK   80  A    between atoms: _201  and  _203
REMARK   81  A    between atoms: _203  and  _204
REMARK   82  A    between atoms: _203  and  _206
REMARK   83  A    between atoms: _206  and  _207
REMARK   84  A    between atoms: _210  and  _212
REMARK   85  A    between atoms: _212  and  _213
REMARK   86  A    between atoms: _212  and  _215
REMARK   87  A    between atoms: _218  and  _220
REMARK   88  A    between atoms: _220  and  _221
REMARK   89  A    between atoms: _220  and  _223
REMARK   90  A    between atoms: _223  and  _224
REMARK   91  A    between atoms: _224  and  _225
REMARK   92  A    between atoms: _225  and  _226
REMARK   93  A    between atoms: _235  and  _237
REMARK   94  A    between atoms: _237  and  _238
REMARK   95  A    between atoms: _241  and  _243
REMARK   96  A    between atoms: _243  and  _244
REMARK   97  A    between atoms: _246  and  _248
REMARK   98  A    between atoms: _248  and  _249
REMARK   99  A    between atoms: _248  and  _251
REMARK  100  A    between atoms: _251  and  _252
REMARK  101  A    between atoms: _257  and  _259
REMARK  102  A    between atoms: _259  and  _260
REMARK  103  A    between atoms: _259  and  _262
REMARK  104  A    between atoms: _262  and  _263
REMARK  105  A    between atoms: _263  and  _264
REMARK  106  A    between atoms: _264  and  _265
REMARK  107  A    between atoms: _274  and  _276
REMARK  108  A    between atoms: _276  and  _277
REMARK  109  A    between atoms: _276  and  _279
REMARK  110  A    between atoms: _279  and  _280
REMARK  111  A    between atoms: _283  and  _285
REMARK  112  A    between atoms: _285  and  _286
REMARK  113  A    between atoms: _285  and  _288
REMARK  114  A    between atoms: _288  and  _289
REMARK  115  A    between atoms: _291  and  _293
REMARK  116  A    between atoms: _293  and  _294
REMARK  117  A    between atoms: _293  and  _296
REMARK  118  A    between atoms: _296  and  _297
REMARK  119  A    between atoms: _297  and  _408
REMARK  120  A    between atoms: _298  and  _300
REMARK  121  A    between atoms: _300  and  _301
REMARK  122  A    between atoms: _300  and  _303
REMARK  123  A    between atoms: _303  and  _304
REMARK  124  A    between atoms: _304  and  _305
REMARK  125  A    between atoms: _310  and  _312
REMARK  126  A    between atoms: _312  and  _313
REMARK  127  A    between atoms: _315  and  _317
REMARK  128  A    between atoms: _317  and  _318
REMARK  129  A    between atoms: _317  and  _320
REMARK  130  A    between atoms: _320  and  _321
REMARK  131  A    between atoms: _324  and  _326
REMARK  132  A    between atoms: _326  and  _327
REMARK  133  A    between atoms: _326  and  _329
REMARK  134  A    between atoms: _329  and  _330
REMARK  135  A    between atoms: _332  and  _334
REMARK  136  A    between atoms: _334  and  _335
REMARK  137  A    between atoms: _337  and  _339
REMARK  138  A    between atoms: _339  and  _340
REMARK  139  A    between atoms: _342  and  _344
REMARK  140  A    between atoms: _344  and  _345
REMARK  141  A    between atoms: _344  and  _347
REMARK  142  A    between atoms: _350  and  _352
REMARK  143  A    between atoms: _352  and  _353
REMARK  144  A    between atoms: _352  and  _355
REMARK  145  A    between atoms: _358  and  _360
REMARK  146  A    between atoms: _360  and  _361
REMARK  147  A    between atoms: _360  and  _363
REMARK  148  A    between atoms: _363  and  _364
REMARK  149  A    between atoms: _366  and  _368
REMARK  150  A    between atoms: _368  and  _369
REMARK  151  A    between atoms: _368  and  _371
REMARK  152  A    between atoms: _371  and  _372
REMARK  153  A    between atoms: _382  and  _384
REMARK  154  A    between atoms: _384  and  _385
REMARK  155  A    between atoms: _387  and  _389
REMARK  156  A    between atoms: _389  and  _390
REMARK  157  A    between atoms: _389  and  _392
REMARK  158  A    between atoms: _392  and  _393
REMARK  159  A    between atoms: _393  and  _394
REMARK  160  A    between atoms: _397  and  _399
REMARK  161  A    between atoms: _399  and  _400
REMARK  162  A    between atoms: _402  and  _404
REMARK  163  A    between atoms: _404  and  _405
REMARK  164  A    between atoms: _404  and  _407
REMARK  165  A    between atoms: _407  and  _408
REMARK  166  A    between atoms: _409  and  _411
REMARK  167  A    between atoms: _411  and  _412
REMARK  168  A    between atoms: _415  and  _417
REMARK  169  A    between atoms: _417  and  _418
REMARK  170  A    between atoms: _417  and  _420
REMARK  171  A    between atoms: _420  and  _421
REMARK  172  A    between atoms: _421  and  _422
REMARK  173  A    between atoms: _427  and  _429
REMARK  174  A    between atoms: _429  and  _430
REMARK  175  A    between atoms: _429  and  _432
REMARK  176  A    between atoms: _432  and  _433
REMARK  177  A    between atoms: _438  and  _440
REMARK  178  A    between atoms: _440  and  _441
REMARK  179  A    between atoms: _440  and  _443
REMARK  180  A    between atoms: _443  and  _444
REMARK  181  A    between atoms: _444  and  _445
REMARK  182  A    between atoms: _445  and  _446
REMARK  183  A    between atoms: _456  and  _457
REMARK  184  A    between atoms: _462  and  _464
REMARK  185  A    between atoms: _464  and  _465
REMARK  186  A    between atoms: _467  and  _469
REMARK  187  A    between atoms: _469  and  _470
REMARK  188  A    between atoms: _469  and  _472
REMARK  189  A    between atoms: _472  and  _473
REMARK  190  A    between atoms: _476  and  _478
REMARK  191  A    between atoms: _478  and  _479
REMARK  192  A    between atoms: _478  and  _481
REMARK  193  A    between atoms: _481  and  _482
REMARK  194  A    between atoms: _487  and  _488
REMARK  195  A    between atoms: _490  and  _492
REMARK  196  A    between atoms: _492  and  _493
REMARK  197  A    between atoms: _496  and  _497
REMARK  198  A    between atoms: _502  and  _504
REMARK  199  A    between atoms: _504  and  _505
REMARK  200  A    between atoms: _504  and  _507
REMARK  201  A    between atoms: _507  and  _508
REMARK  202  A    between atoms: _511  and  _513
REMARK  203  A    between atoms: _513  and  _514
REMARK  204  A    between atoms: _513  and  _516
REMARK  205  A    between atoms: _519  and  _521
REMARK  206  A    between atoms: _521  and  _522
REMARK  207  A    between atoms: _521  and  _524
REMARK  208  A    between atoms: _524  and  _525
REMARK  209  A    between atoms: _533  and  _534
REMARK  210  A    between atoms: _533  and  _536
REMARK  211  A    between atoms: _536  and  _537
REMARK  212  A    between atoms: _542  and  _543
REMARK  213  A    between atoms: _545  and  _547
REMARK  214  A    between atoms: _547  and  _548
REMARK  215  A    between atoms: _547  and  _550
REMARK  216  A    between atoms: _550  and  _551
REMARK  217  A    between atoms: _554  and  _556
REMARK  218  A    between atoms: _556  and  _557
REMARK  219  A    between atoms: _556  and  _559
REMARK  220  A    between atoms: _559  and  _560
REMARK  221  A    between atoms: _560  and  _561
REMARK  222  A    between atoms: _566  and  _568
REMARK  223  A    between atoms: _568  and  _569
REMARK  224  A    between atoms: _568  and  _571
REMARK  225  A    between atoms: _571  and  _572
REMARK                            x       y       z     vdW  Elec       q    Type
REMARK                         _______ _______ _______ _____ _____    ______ ____
ROOT
ATOM      1  O   HOH     1      -8.184  49.369 -16.469  0.00  0.00    +0.000 OA
ENDROOT
TORSDOF 0
REMARK  Name = ../refined-set-2016/4a6l/4a6l_pocket.pdb
REMARK  225 active torsions:
REMARK  status: ('A' for Active; 'I' for Inactive)
REMARK    1  A    between atoms: _1  and  _5
REMARK    2  A    between atoms: _5  and  _6
REMARK    3  A    between atoms: _5  and  _8
REMARK    4  A    between atoms: _8  and  _9
REMARK    5  A    between atoms: _12  and  _14
REMARK    6  A    between atoms: _14  and  _15
REMARK    7  A    between atoms: _14  and  _17
REMARK    8  A    between atoms: _20  and  _22
REMARK    9  A    between atoms: _22  and  _23
REMARK   10  A    between atoms: _22  and  _25
REMARK   11  A    between atoms: _25  and  _26
REMARK   12  A    between atoms: _31  and  _33
REMARK   13  A    between atoms: _33  and  _34
REMARK   14  A    between atoms: _37  and  _39
REMARK   15  A    between atoms: _39  and  _40
REMARK   16  A    between atoms: _39  and  _42
REMARK   17  A    between atoms: _42  and  _43
REMARK   18  A    between atoms: _43  and  _44
REMARK   19  A    between atoms: _49  and  _51
REMARK   20  A    between atoms: _51  and  _52
REMARK   21  A    between atoms: _51  and  _54
REMARK   22  A    between atoms: _57  and  _59
REMARK   23  A    between atoms: _59  and  _60
REMARK   24  A    between atoms: _59  and  _62
REMARK   25  A    between atoms: _62  and  _63
REMARK   26  A    between atoms: _66  and  _68
REMARK   27  A    between atoms: _68  and  _69
REMARK   28  A    between atoms: _68  and  _71
REMARK   29  A    between atoms: _71  and  _72
REMARK   30  A    between atoms: _77  and  _79
REMARK   31  A    between atoms: _79  and  _80
REMARK   32  A    between atoms: _79  and  _82
REMARK   33  A    between atoms: _82  and  _83
REMARK   34  A    between atoms: _86  and  _88
REMARK   35  A    between atoms: _88  and  _89
REMARK   36  A    between atoms: _88  and  _91
REMARK   37  A    between atoms: _91  and  _92
REMARK   38  A    between atoms: _95  and  _97
REMARK   39  A    between atoms: _97  and  _98
REMARK   40  A    between atoms: _97  and  _100
REMARK   41  A    between atoms: _100  and  _101
REMARK   42  A    between atoms: _101  and  _102
REMARK   43  A    between atoms: _102  and  _103
REMARK   44  A    between atoms: _103  and  _104
REMARK   45  A    between atoms: _108  and  _110
REMARK   46  A    between atoms: _110  and  _111
REMARK   47  A    between atoms: _110  and  _113
REMARK   48  A    between atoms: _113  and  _114
REMARK   49  A    between atoms: _119  and  _120
REMARK   50  A    between atoms: _122  and  _124
REMARK   51  A    between atoms: _124  and  _125
REMARK   52  A    between atoms: _124  and  _127
REMARK   53  A    between atoms: _127  and  _128
REMARK   54  A    between atoms: _133  and  _135
REMARK   55  A    between atoms: _135  and  _136
REMARK   56  A    between atoms: _135  and  _138
REMARK   57  A    between atoms: _138  and  _139
REMARK   58  A    between atoms: _142  and  _144
REMARK   59  A    between atoms: _144  and  _145
REMARK   60  A    between atoms: _147  and  _149
REMARK   61  A    between atoms: _149  and  _150
REMARK   62  A    between atoms: _153  and  _155
REMARK   63  A    between atoms: _155  and  _156
REMARK   64  A    between atoms: _155  and  _158
REMARK   65  A    between atoms: _158  and  _159
REMARK   66  A    between atoms: _164  and  _165
REMARK   67  A    between atoms: _167  and  _169
REMARK   68  A    between atoms: _169  and  _170
REMARK   69  A    between atoms: _169  and  _172
REMARK   70  A    between atoms: _172  and  _173
REMARK   71  A    between atoms: _176  and  _178
REMARK   72  A    between atoms: _178  and  _179
REMARK   73  A    between atoms: _178  and  _181
REMARK   74  A    between atoms: _184  and  _186
REMARK   75  A    between atoms: _186  and  _187
REMARK   76  A    between atoms: _186  and  _189
REMARK   77  A    between atoms: _189  and  _190
REMARK   78  A    between atoms: _190  and  _191
REMARK   79  A    between atoms: _191  and  _192
REMARK   80  A    between atoms: _201  and  _203
REMARK   81  A    between atoms: _203  and  _204
REMARK   82  A    between atoms: _203  and  _206
REMARK   83  A    between atoms: _206  and  _207
REMARK   84  A    between atoms: _210  and  _212
REMARK   85  A    between atoms: _212  and  _213
REMARK   86  A    between atoms: _212  and  _215
REMARK   87  A    between atoms: _218  and  _220
REMARK   88  A    between atoms: _220  and  _221
REMARK   89  A    between atoms: _220  and  _223
REMARK   90  A    between atoms: _223  and  _224
REMARK   91  A    between atoms: _224  and  _225
REMARK   92  A    between atoms: _225  and  _226
REMARK   93  A    between atoms: _235  and  _237
REMARK   94  A    between atoms: _237  and  _238
REMARK   95  A    between atoms: _241  and  _243
REMARK   96  A    between atoms: _243  and  _244
REMARK   97  A    between atoms: _246  and  _248
REMARK   98  A    between atoms: _248  and  _249
REMARK   99  A    between atoms: _248  and  _251
REMARK  100  A    between atoms: _251  and  _252
REMARK  101  A    between atoms: _257  and  _259
REMARK  102  A    between atoms: _259  and  _260
REMARK  103  A    between atoms: _259  and  _262
REMARK  104  A    between atoms: _262  and  _263
REMARK  105  A    between atoms: _263  and  _264
REMARK  106  A    between atoms: _264  and  _265
REMARK  107  A    between atoms: _274  and  _276
REMARK  108  A    between atoms: _276  and  _277
REMARK  109  A    between atoms: _276  and  _279
REMARK  110  A    between atoms: _279  and  _280
REMARK  111  A    between atoms: _283  and  _285
REMARK  112  A    between atoms: _285  and  _286
REMARK  113  A    between atoms: _285  and  _288
REMARK  114  A    between atoms: _288  and  _289
REMARK  115  A    between atoms: _291  and  _293
REMARK  116  A    between atoms: _293  and  _294
REMARK  117  A    between atoms: _293  and  _296
REMARK  118  A    between atoms: _296  and  _297
REMARK  119  A    between atoms: _297  and  _408
REMARK  120  A    between atoms: _298  and  _300
REMARK  121  A    between atoms: _300  and  _301
REMARK  122  A    between atoms: _300  and  _303
REMARK  123  A    between atoms: _303  and  _304
REMARK  124  A    between atoms: _304  and  _305
REMARK  125  A    between atoms: _310  and  _312
REMARK  126  A    between atoms: _312  and  _313
REMARK  127  A    between atoms: _315  and  _317
REMARK  128  A    between atoms: _317  and  _318
REMARK  129  A    between atoms: _317  and  _320
REMARK  130  A    between atoms: _320  and  _321
REMARK  131  A    between atoms: _324  and  _326
REMARK  132  A    between atoms: _326  and  _327
REMARK  133  A    between atoms: _326  and  _329
REMARK  134  A    between atoms: _329  and  _330
REMARK  135  A    between atoms: _332  and  _334
REMARK  136  A    between atoms: _334  and  _335
REMARK  137  A    between atoms: _337  and  _339
REMARK  138  A    between atoms: _339  and  _340
REMARK  139  A    between atoms: _342  and  _344
REMARK  140  A    between atoms: _344  and  _345
REMARK  141  A    between atoms: _344  and  _347
REMARK  142  A    between atoms: _350  and  _352
REMARK  143  A    between atoms: _352  and  _353
REMARK  144  A    between atoms: _352  and  _355
REMARK  145  A    between atoms: _358  and  _360
REMARK  146  A    between atoms: _360  and  _361
REMARK  147  A    between atoms: _360  and  _363
REMARK  148  A    between atoms: _363  and  _364
REMARK  149  A    between atoms: _366  and  _368
REMARK  150  A    between atoms: _368  and  _369
REMARK  151  A    between atoms: _368  and  _371
REMARK  152  A    between atoms: _371  and  _372
REMARK  153  A    between atoms: _382  and  _384
REMARK  154  A    between atoms: _384  and  _385
REMARK  155  A    between atoms: _387  and  _389
REMARK  156  A    between atoms: _389  and  _390
REMARK  157  A    between atoms: _389  and  _392
REMARK  158  A    between atoms: _392  and  _393
REMARK  159  A    between atoms: _393  and  _394
REMARK  160  A    between atoms: _397  and  _399
REMARK  161  A    between atoms: _399  and  _400
REMARK  162  A    between atoms: _402  and  _404
REMARK  163  A    between atoms: _404  and  _405
REMARK  164  A    between atoms: _404  and  _407
REMARK  165  A    between atoms: _407  and  _408
REMARK  166  A    between atoms: _409  and  _411
REMARK  167  A    between atoms: _411  and  _412
REMARK  168  A    between atoms: _415  and  _417
REMARK  169  A    between atoms: _417  and  _418
REMARK  170  A    between atoms: _417  and  _420
REMARK  171  A    between atoms: _420  and  _421
REMARK  172  A    between atoms: _421  and  _422
REMARK  173  A    between atoms: _427  and  _429
REMARK  174  A    between atoms: _429  and  _430
REMARK  175  A    between atoms: _429  and  _432
REMARK  176  A    between atoms: _432  and  _433
REMARK  177  A    between atoms: _438  and  _440
REMARK  178  A    between atoms: _440  and  _441
REMARK  179  A    between atoms: _440  and  _443
REMARK  180  A    between atoms: _443  and  _444
REMARK  181  A    between atoms: _444  and  _445
REMARK  182  A    between atoms: _445  and  _446
REMARK  183  A    between atoms: _456  and  _457
REMARK  184  A    between atoms: _462  and  _464
REMARK  185  A    between atoms: _464  and  _465
REMARK  186  A    between atoms: _467  and  _469
REMARK  187  A    between atoms: _469  and  _470
REMARK  188  A    between atoms: _469  and  _472
REMARK  189  A    between atoms: _472  and  _473
REMARK  190  A    between atoms: _476  and  _478
REMARK  191  A    between atoms: _478  and  _479
REMARK  192  A    between atoms: _478  and  _481
REMARK  193  A    between atoms: _481  and  _482
REMARK  194  A    between atoms: _487  and  _488
REMARK  195  A    between atoms: _490  and  _492
REMARK  196  A    between atoms: _492  and  _493
REMARK  197  A    between atoms: _496  and  _497
REMARK  198  A    between atoms: _502  and  _504
REMARK  199  A    between atoms: _504  and  _505
REMARK  200  A    between atoms: _504  and  _507
REMARK  201  A    between atoms: _507  and  _508
REMARK  202  A    between atoms: _511  and  _513
REMARK  203  A    between atoms: _513  and  _514
REMARK  204  A    between atoms: _513  and  _516
REMARK  205  A    between atoms: _519  and  _521
REMARK  206  A    between atoms: _521  and  _522
REMARK  207  A    between atoms: _521  and  _524
REMARK  208  A    between atoms: _524  and  _525
REMARK  209  A    between atoms: _533  and  _534
REMARK  210  A    between atoms: _533  and  _536
REMARK  211  A    between atoms: _536  and  _537
REMARK  212  A    between atoms: _542  and  _543
REMARK  213  A    between atoms: _545  and  _547
REMARK  214  A    between atoms: _547  and  _548
REMARK  215  A    between atoms: _547  and  _550
REMARK  216  A    between atoms: _550  and  _551
REMARK  217  A    between atoms: _554  and  _556
REMARK  218  A    between atoms: _556  and  _557
REMARK  219  A    between atoms: _556  and  _559
REMARK  220  A    between atoms: _559  and  _560
REMARK  221  A    between atoms: _560  and  _561
REMARK  222  A    between atoms: _566  and  _568
REMARK  223  A    between atoms: _568  and  _569
REMARK  224  A    between atoms: _568  and  _571
REMARK  225  A    between atoms: _571  and  _572
REMARK                            x       y       z     vdW  Elec       q    Type
REMARK                         _______ _______ _______ _____ _____    ______ ____
ROOT
ATOM      1  O   HOH     1     -16.875  45.363 -10.636  0.00  0.00    +0.000 OA
ENDROOT
TORSDOF 0
REMARK  Name = ../refined-set-2016/4a6l/4a6l_pocket.pdb
REMARK  225 active torsions:
REMARK  status: ('A' for Active; 'I' for Inactive)
REMARK    1  A    between atoms: _1  and  _5
REMARK    2  A    between atoms: _5  and  _6
REMARK    3  A    between atoms: _5  and  _8
REMARK    4  A    between atoms: _8  and  _9
REMARK    5  A    between atoms: _12  and  _14
REMARK    6  A    between atoms: _14  and  _15
REMARK    7  A    between atoms: _14  and  _17
REMARK    8  A    between atoms: _20  and  _22
REMARK    9  A    between atoms: _22  and  _23
REMARK   10  A    between atoms: _22  and  _25
REMARK   11  A    between atoms: _25  and  _26
REMARK   12  A    between atoms: _31  and  _33
REMARK   13  A    between atoms: _33  and  _34
REMARK   14  A    between atoms: _37  and  _39
REMARK   15  A    between atoms: _39  and  _40
REMARK   16  A    between atoms: _39  and  _42
REMARK   17  A    between atoms: _42  and  _43
REMARK   18  A    between atoms: _43  and  _44
REMARK   19  A    between atoms: _49  and  _51
REMARK   20  A    between atoms: _51  and  _52
REMARK   21  A    between atoms: _51  and  _54
REMARK   22  A    between atoms: _57  and  _59
REMARK   23  A    between atoms: _59  and  _60
REMARK   24  A    between atoms: _59  and  _62
REMARK   25  A    between atoms: _62  and  _63
REMARK   26  A    between atoms: _66  and  _68
REMARK   27  A    between atoms: _68  and  _69
REMARK   28  A    between atoms: _68  and  _71
REMARK   29  A    between atoms: _71  and  _72
REMARK   30  A    between atoms: _77  and  _79
REMARK   31  A    between atoms: _79  and  _80
REMARK   32  A    between atoms: _79  and  _82
REMARK   33  A    between atoms: _82  and  _83
REMARK   34  A    between atoms: _86  and  _88
REMARK   35  A    between atoms: _88  and  _89
REMARK   36  A    between atoms: _88  and  _91
REMARK   37  A    between atoms: _91  and  _92
REMARK   38  A    between atoms: _95  and  _97
REMARK   39  A    between atoms: _97  and  _98
REMARK   40  A    between atoms: _97  and  _100
REMARK   41  A    between atoms: _100  and  _101
REMARK   42  A    between atoms: _101  and  _102
REMARK   43  A    between atoms: _102  and  _103
REMARK   44  A    between atoms: _103  and  _104
REMARK   45  A    between atoms: _108  and  _110
REMARK   46  A    between atoms: _110  and  _111
REMARK   47  A    between atoms: _110  and  _113
REMARK   48  A    between atoms: _113  and  _114
REMARK   49  A    between atoms: _119  and  _120
REMARK   50  A    between atoms: _122  and  _124
REMARK   51  A    between atoms: _124  and  _125
REMARK   52  A    between atoms: _124  and  _127
REMARK   53  A    between atoms: _127  and  _128
REMARK   54  A    between atoms: _133  and  _135
REMARK   55  A    between atoms: _135  and  _136
REMARK   56  A    between atoms: _135  and  _138
REMARK   57  A    between atoms: _138  and  _139
REMARK   58  A    between atoms: _142  and  _144
REMARK   59  A    between atoms: _144  and  _145
REMARK   60  A    between atoms: _147  and  _149
REMARK   61  A    between atoms: _149  and  _150
REMARK   62  A    between atoms: _153  and  _155
REMARK   63  A    between atoms: _155  and  _156
REMARK   64  A    between atoms: _155  and  _158
REMARK   65  A    between atoms: _158  and  _159
REMARK   66  A    between atoms: _164  and  _165
REMARK   67  A    between atoms: _167  and  _169
REMARK   68  A    between atoms: _169  and  _170
REMARK   69  A    between atoms: _169  and  _172
REMARK   70  A    between atoms: _172  and  _173
REMARK   71  A    between atoms: _176  and  _178
REMARK   72  A    between atoms: _178  and  _179
REMARK   73  A    between atoms: _178  and  _181
REMARK   74  A    between atoms: _184  and  _186
REMARK   75  A    between atoms: _186  and  _187
REMARK   76  A    between atoms: _186  and  _189
REMARK   77  A    between atoms: _189  and  _190
REMARK   78  A    between atoms: _190  and  _191
REMARK   79  A    between atoms: _191  and  _192
REMARK   80  A    between atoms: _201  and  _203
REMARK   81  A    between atoms: _203  and  _204
REMARK   82  A    between atoms: _203  and  _206
REMARK   83  A    between atoms: _206  and  _207
REMARK   84  A    between atoms: _210  and  _212
REMARK   85  A    between atoms: _212  and  _213
REMARK   86  A    between atoms: _212  and  _215
REMARK   87  A    between atoms: _218  and  _220
REMARK   88  A    between atoms: _220  and  _221
REMARK   89  A    between atoms: _220  and  _223
REMARK   90  A    between atoms: _223  and  _224
REMARK   91  A    between atoms: _224  and  _225
REMARK   92  A    between atoms: _225  and  _226
REMARK   93  A    between atoms: _235  and  _237
REMARK   94  A    between atoms: _237  and  _238
REMARK   95  A    between atoms: _241  and  _243
REMARK   96  A    between atoms: _243  and  _244
REMARK   97  A    between atoms: _246  and  _248
REMARK   98  A    between atoms: _248  and  _249
REMARK   99  A    between atoms: _248  and  _251
REMARK  100  A    between atoms: _251  and  _252
REMARK  101  A    between atoms: _257  and  _259
REMARK  102  A    between atoms: _259  and  _260
REMARK  103  A    between atoms: _259  and  _262
REMARK  104  A    between atoms: _262  and  _263
REMARK  105  A    between atoms: _263  and  _264
REMARK  106  A    between atoms: _264  and  _265
REMARK  107  A    between atoms: _274  and  _276
REMARK  108  A    between atoms: _276  and  _277
REMARK  109  A    between atoms: _276  and  _279
REMARK  110  A    between atoms: _279  and  _280
REMARK  111  A    between atoms: _283  and  _285
REMARK  112  A    between atoms: _285  and  _286
REMARK  113  A    between atoms: _285  and  _288
REMARK  114  A    between atoms: _288  and  _289
REMARK  115  A    between atoms: _291  and  _293
REMARK  116  A    between atoms: _293  and  _294
REMARK  117  A    between atoms: _293  and  _296
REMARK  118  A    between atoms: _296  and  _297
REMARK  119  A    between atoms: _297  and  _408
REMARK  120  A    between atoms: _298  and  _300
REMARK  121  A    between atoms: _300  and  _301
REMARK  122  A    between atoms: _300  and  _303
REMARK  123  A    between atoms: _303  and  _304
REMARK  124  A    between atoms: _304  and  _305
REMARK  125  A    between atoms: _310  and  _312
REMARK  126  A    between atoms: _312  and  _313
REMARK  127  A    between atoms: _315  and  _317
REMARK  128  A    between atoms: _317  and  _318
REMARK  129  A    between atoms: _317  and  _320
REMARK  130  A    between atoms: _320  and  _321
REMARK  131  A    between atoms: _324  and  _326
REMARK  132  A    between atoms: _326  and  _327
REMARK  133  A    between atoms: _326  and  _329
REMARK  134  A    between atoms: _329  and  _330
REMARK  135  A    between atoms: _332  and  _334
REMARK  136  A    between atoms: _334  and  _335
REMARK  137  A    between atoms: _337  and  _339
REMARK  138  A    between atoms: _339  and  _340
REMARK  139  A    between atoms: _342  and  _344
REMARK  140  A    between atoms: _344  and  _345
REMARK  141  A    between atoms: _344  and  _347
REMARK  142  A    between atoms: _350  and  _352
REMARK  143  A    between atoms: _352  and  _353
REMARK  144  A    between atoms: _352  and  _355
REMARK  145  A    between atoms: _358  and  _360
REMARK  146  A    between atoms: _360  and  _361
REMARK  147  A    between atoms: _360  and  _363
REMARK  148  A    between atoms: _363  and  _364
REMARK  149  A    between atoms: _366  and  _368
REMARK  150  A    between atoms: _368  and  _369
REMARK  151  A    between atoms: _368  and  _371
REMARK  152  A    between atoms: _371  and  _372
REMARK  153  A    between atoms: _382  and  _384
REMARK  154  A    between atoms: _384  and  _385
REMARK  155  A    between atoms: _387  and  _389
REMARK  156  A    between atoms: _389  and  _390
REMARK  157  A    between atoms: _389  and  _392
REMARK  158  A    between atoms: _392  and  _393
REMARK  159  A    between atoms: _393  and  _394
REMARK  160  A    between atoms: _397  and  _399
REMARK  161  A    between atoms: _399  and  _400
REMARK  162  A    between atoms: _402  and  _404
REMARK  163  A    between atoms: _404  and  _405
REMARK  164  A    between atoms: _404  and  _407
REMARK  165  A    between atoms: _407  and  _408
REMARK  166  A    between atoms: _409  and  _411
REMARK  167  A    between atoms: _411  and  _412
REMARK  168  A    between atoms: _415  and  _417
REMARK  169  A    between atoms: _417  and  _418
REMARK  170  A    between atoms: _417  and  _420
REMARK  171  A    between atoms: _420  and  _421
REMARK  172  A    between atoms: _421  and  _422
REMARK  173  A    between atoms: _427  and  _429
REMARK  174  A    between atoms: _429  and  _430
REMARK  175  A    between atoms: _429  and  _432
REMARK  176  A    between atoms: _432  and  _433
REMARK  177  A    between atoms: _438  and  _440
REMARK  178  A    between atoms: _440  and  _441
REMARK  179  A    between atoms: _440  and  _443
REMARK  180  A    between atoms: _443  and  _444
REMARK  181  A    between atoms: _444  and  _445
REMARK  182  A    between atoms: _445  and  _446
REMARK  183  A    between atoms: _456  and  _457
REMARK  184  A    between atoms: _462  and  _464
REMARK  185  A    between atoms: _464  and  _465
REMARK  186  A    between atoms: _467  and  _469
REMARK  187  A    between atoms: _469  and  _470
REMARK  188  A    between atoms: _469  and  _472
REMARK  189  A    between atoms: _472  and  _473
REMARK  190  A    between atoms: _476  and  _478
REMARK  191  A    between atoms: _478  and  _479
REMARK  192  A    between atoms: _478  and  _481
REMARK  193  A    between atoms: _481  and  _482
REMARK  194  A    between atoms: _487  and  _488
REMARK  195  A    between atoms: _490  and  _492
REMARK  196  A    between atoms: _492  and  _493
REMARK  197  A    between atoms: _496  and  _497
REMARK  198  A    between atoms: _502  and  _504
REMARK  199  A    between atoms: _504  and  _505
REMARK  200  A    between atoms: _504  and  _507
REMARK  201  A    between atoms: _507  and  _508
REMARK  202  A    between atoms: _511  and  _513
REMARK  203  A    between atoms: _513  and  _514
REMARK  204  A    between atoms: _513  and  _516
REMARK  205  A    between atoms: _519  and  _521
REMARK  206  A    between atoms: _521  and  _522
REMARK  207  A    between atoms: _521  and  _524
REMARK  208  A    between atoms: _524  and  _525
REMARK  209  A    between atoms: _533  and  _534
REMARK  210  A    between atoms: _533  and  _536
REMARK  211  A    between atoms: _536  and  _537
REMARK  212  A    between atoms: _542  and  _543
REMARK  213  A    between atoms: _545  and  _547
REMARK  214  A    between atoms: _547  and  _548
REMARK  215  A    between atoms: _547  and  _550
REMARK  216  A    between atoms: _550  and  _551
REMARK  217  A    between atoms: _554  and  _556
REMARK  218  A    between atoms: _556  and  _557
REMARK  219  A    between atoms: _556  and  _559
REMARK  220  A    between atoms: _559  and  _560
REMARK  221  A    between atoms: _560  and  _561
REMARK  222  A    between atoms: _566  and  _568
REMARK  223  A    between atoms: _568  and  _569
REMARK  224  A    between atoms: _568  and  _571
REMARK  225  A    between atoms: _571  and  _572
REMARK                            x       y       z     vdW  Elec       q    Type
REMARK                         _______ _______ _______ _____ _____    ______ ____
ROOT
ATOM      1  O   HOH     1      -6.210  66.681 -10.212  0.00  0.00    +0.000 OA
ENDROOT
TORSDOF 0
REMARK  Name = ../refined-set-2016/4a6l/4a6l_pocket.pdb
REMARK  225 active torsions:
REMARK  status: ('A' for Active; 'I' for Inactive)
REMARK    1  A    between atoms: _1  and  _5
REMARK    2  A    between atoms: _5  and  _6
REMARK    3  A    between atoms: _5  and  _8
REMARK    4  A    between atoms: _8  and  _9
REMARK    5  A    between atoms: _12  and  _14
REMARK    6  A    between atoms: _14  and  _15
REMARK    7  A    between atoms: _14  and  _17
REMARK    8  A    between atoms: _20  and  _22
REMARK    9  A    between atoms: _22  and  _23
REMARK   10  A    between atoms: _22  and  _25
REMARK   11  A    between atoms: _25  and  _26
REMARK   12  A    between atoms: _31  and  _33
REMARK   13  A    between atoms: _33  and  _34
REMARK   14  A    between atoms: _37  and  _39
REMARK   15  A    between atoms: _39  and  _40
REMARK   16  A    between atoms: _39  and  _42
REMARK   17  A    between atoms: _42  and  _43
REMARK   18  A    between atoms: _43  and  _44
REMARK   19  A    between atoms: _49  and  _51
REMARK   20  A    between atoms: _51  and  _52
REMARK   21  A    between atoms: _51  and  _54
REMARK   22  A    between atoms: _57  and  _59
REMARK   23  A    between atoms: _59  and  _60
REMARK   24  A    between atoms: _59  and  _62
REMARK   25  A    between atoms: _62  and  _63
REMARK   26  A    between atoms: _66  and  _68
REMARK   27  A    between atoms: _68  and  _69
REMARK   28  A    between atoms: _68  and  _71
REMARK   29  A    between atoms: _71  and  _72
REMARK   30  A    between atoms: _77  and  _79
REMARK   31  A    between atoms: _79  and  _80
REMARK   32  A    between atoms: _79  and  _82
REMARK   33  A    between atoms: _82  and  _83
REMARK   34  A    between atoms: _86  and  _88
REMARK   35  A    between atoms: _88  and  _89
REMARK   36  A    between atoms: _88  and  _91
REMARK   37  A    between atoms: _91  and  _92
REMARK   38  A    between atoms: _95  and  _97
REMARK   39  A    between atoms: _97  and  _98
REMARK   40  A    between atoms: _97  and  _100
REMARK   41  A    between atoms: _100  and  _101
REMARK   42  A    between atoms: _101  and  _102
REMARK   43  A    between atoms: _102  and  _103
REMARK   44  A    between atoms: _103  and  _104
REMARK   45  A    between atoms: _108  and  _110
REMARK   46  A    between atoms: _110  and  _111
REMARK   47  A    between atoms: _110  and  _113
REMARK   48  A    between atoms: _113  and  _114
REMARK   49  A    between atoms: _119  and  _120
REMARK   50  A    between atoms: _122  and  _124
REMARK   51  A    between atoms: _124  and  _125
REMARK   52  A    between atoms: _124  and  _127
REMARK   53  A    between atoms: _127  and  _128
REMARK   54  A    between atoms: _133  and  _135
REMARK   55  A    between atoms: _135  and  _136
REMARK   56  A    between atoms: _135  and  _138
REMARK   57  A    between atoms: _138  and  _139
REMARK   58  A    between atoms: _142  and  _144
REMARK   59  A    between atoms: _144  and  _145
REMARK   60  A    between atoms: _147  and  _149
REMARK   61  A    between atoms: _149  and  _150
REMARK   62  A    between atoms: _153  and  _155
REMARK   63  A    between atoms: _155  and  _156
REMARK   64  A    between atoms: _155  and  _158
REMARK   65  A    between atoms: _158  and  _159
REMARK   66  A    between atoms: _164  and  _165
REMARK   67  A    between atoms: _167  and  _169
REMARK   68  A    between atoms: _169  and  _170
REMARK   69  A    between atoms: _169  and  _172
REMARK   70  A    between atoms: _172  and  _173
REMARK   71  A    between atoms: _176  and  _178
REMARK   72  A    between atoms: _178  and  _179
REMARK   73  A    between atoms: _178  and  _181
REMARK   74  A    between atoms: _184  and  _186
REMARK   75  A    between atoms: _186  and  _187
REMARK   76  A    between atoms: _186  and  _189
REMARK   77  A    between atoms: _189  and  _190
REMARK   78  A    between atoms: _190  and  _191
REMARK   79  A    between atoms: _191  and  _192
REMARK   80  A    between atoms: _201  and  _203
REMARK   81  A    between atoms: _203  and  _204
REMARK   82  A    between atoms: _203  and  _206
REMARK   83  A    between atoms: _206  and  _207
REMARK   84  A    between atoms: _210  and  _212
REMARK   85  A    between atoms: _212  and  _213
REMARK   86  A    between atoms: _212  and  _215
REMARK   87  A    between atoms: _218  and  _220
REMARK   88  A    between atoms: _220  and  _221
REMARK   89  A    between atoms: _220  and  _223
REMARK   90  A    between atoms: _223  and  _224
REMARK   91  A    between atoms: _224  and  _225
REMARK   92  A    between atoms: _225  and  _226
REMARK   93  A    between atoms: _235  and  _237
REMARK   94  A    between atoms: _237  and  _238
REMARK   95  A    between atoms: _241  and  _243
REMARK   96  A    between atoms: _243  and  _244
REMARK   97  A    between atoms: _246  and  _248
REMARK   98  A    between atoms: _248  and  _249
REMARK   99  A    between atoms: _248  and  _251
REMARK  100  A    between atoms: _251  and  _252
REMARK  101  A    between atoms: _257  and  _259
REMARK  102  A    between atoms: _259  and  _260
REMARK  103  A    between atoms: _259  and  _262
REMARK  104  A    between atoms: _262  and  _263
REMARK  105  A    between atoms: _263  and  _264
REMARK  106  A    between atoms: _264  and  _265
REMARK  107  A    between atoms: _274  and  _276
REMARK  108  A    between atoms: _276  and  _277
REMARK  109  A    between atoms: _276  and  _279
REMARK  110  A    between atoms: _279  and  _280
REMARK  111  A    between atoms: _283  and  _285
REMARK  112  A    between atoms: _285  and  _286
REMARK  113  A    between atoms: _285  and  _288
REMARK  114  A    between atoms: _288  and  _289
REMARK  115  A    between atoms: _291  and  _293
REMARK  116  A    between atoms: _293  and  _294
REMARK  117  A    between atoms: _293  and  _296
REMARK  118  A    between atoms: _296  and  _297
REMARK  119  A    between atoms: _297  and  _408
REMARK  120  A    between atoms: _298  and  _300
REMARK  121  A    between atoms: _300  and  _301
REMARK  122  A    between atoms: _300  and  _303
REMARK  123  A    between atoms: _303  and  _304
REMARK  124  A    between atoms: _304  and  _305
REMARK  125  A    between atoms: _310  and  _312
REMARK  126  A    between atoms: _312  and  _313
REMARK  127  A    between atoms: _315  and  _317
REMARK  128  A    between atoms: _317  and  _318
REMARK  129  A    between atoms: _317  and  _320
REMARK  130  A    between atoms: _320  and  _321
REMARK  131  A    between atoms: _324  and  _326
REMARK  132  A    between atoms: _326  and  _327
REMARK  133  A    between atoms: _326  and  _329
REMARK  134  A    between atoms: _329  and  _330
REMARK  135  A    between atoms: _332  and  _334
REMARK  136  A    between atoms: _334  and  _335
REMARK  137  A    between atoms: _337  and  _339
REMARK  138  A    between atoms: _339  and  _340
REMARK  139  A    between atoms: _342  and  _344
REMARK  140  A    between atoms: _344  and  _345
REMARK  141  A    between atoms: _344  and  _347
REMARK  142  A    between atoms: _350  and  _352
REMARK  143  A    between atoms: _352  and  _353
REMARK  144  A    between atoms: _352  and  _355
REMARK  145  A    between atoms: _358  and  _360
REMARK  146  A    between atoms: _360  and  _361
REMARK  147  A    between atoms: _360  and  _363
REMARK  148  A    between atoms: _363  and  _364
REMARK  149  A    between atoms: _366  and  _368
REMARK  150  A    between atoms: _368  and  _369
REMARK  151  A    between atoms: _368  and  _371
REMARK  152  A    between atoms: _371  and  _372
REMARK  153  A    between atoms: _382  and  _384
REMARK  154  A    between atoms: _384  and  _385
REMARK  155  A    between atoms: _387  and  _389
REMARK  156  A    between atoms: _389  and  _390
REMARK  157  A    between atoms: _389  and  _392
REMARK  158  A    between atoms: _392  and  _393
REMARK  159  A    between atoms: _393  and  _394
REMARK  160  A    between atoms: _397  and  _399
REMARK  161  A    between atoms: _399  and  _400
REMARK  162  A    between atoms: _402  and  _404
REMARK  163  A    between atoms: _404  and  _405
REMARK  164  A    between atoms: _404  and  _407
REMARK  165  A    between atoms: _407  and  _408
REMARK  166  A    between atoms: _409  and  _411
REMARK  167  A    between atoms: _411  and  _412
REMARK  168  A    between atoms: _415  and  _417
REMARK  169  A    between atoms: _417  and  _418
REMARK  170  A    between atoms: _417  and  _420
REMARK  171  A    between atoms: _420  and  _421
REMARK  172  A    between atoms: _421  and  _422
REMARK  173  A    between atoms: _427  and  _429
REMARK  174  A    between atoms: _429  and  _430
REMARK  175  A    between atoms: _429  and  _432
REMARK  176  A    between atoms: _432  and  _433
REMARK  177  A    between atoms: _438  and  _440
REMARK  178  A    between atoms: _440  and  _441
REMARK  179  A    between atoms: _440  and  _443
REMARK  180  A    between atoms: _443  and  _444
REMARK  181  A    between atoms: _444  and  _445
REMARK  182  A    between atoms: _445  and  _446
REMARK  183  A    between atoms: _456  and  _457
REMARK  184  A    between atoms: _462  and  _464
REMARK  185  A    between atoms: _464  and  _465
REMARK  186  A    between atoms: _467  and  _469
REMARK  187  A    between atoms: _469  and  _470
REMARK  188  A    between atoms: _469  and  _472
REMARK  189  A    between atoms: _472  and  _473
REMARK  190  A    between atoms: _476  and  _478
REMARK  191  A    between atoms: _478  and  _479
REMARK  192  A    between atoms: _478  and  _481
REMARK  193  A    between atoms: _481  and  _482
REMARK  194  A    between atoms: _487  and  _488
REMARK  195  A    between atoms: _490  and  _492
REMARK  196  A    between atoms: _492  and  _493
REMARK  197  A    between atoms: _496  and  _497
REMARK  198  A    between atoms: _502  and  _504
REMARK  199  A    between atoms: _504  and  _505
REMARK  200  A    between atoms: _504  and  _507
REMARK  201  A    between atoms: _507  and  _508
REMARK  202  A    between atoms: _511  and  _513
REMARK  203  A    between atoms: _513  and  _514
REMARK  204  A    between atoms: _513  and  _516
REMARK  205  A    between atoms: _519  and  _521
REMARK  206  A    between atoms: _521  and  _522
REMARK  207  A    between atoms: _521  and  _524
REMARK  208  A    between atoms: _524  and  _525
REMARK  209  A    between atoms: _533  and  _534
REMARK  210  A    between atoms: _533  and  _536
REMARK  211  A    between atoms: _536  and  _537
REMARK  212  A    between atoms: _542  and  _543
REMARK  213  A    between atoms: _545  and  _547
REMARK  214  A    between atoms: _547  and  _548
REMARK  215  A    between atoms: _547  and  _550
REMARK  216  A    between atoms: _550  and  _551
REMARK  217  A    between atoms: _554  and  _556
REMARK  218  A    between atoms: _556  and  _557
REMARK  219  A    between atoms: _556  and  _559
REMARK  220  A    between atoms: _559  and  _560
REMARK  221  A    between atoms: _560  and  _561
REMARK  222  A    between atoms: _566  and  _568
REMARK  223  A    between atoms: _568  and  _569
REMARK  224  A    between atoms: _568  and  _571
REMARK  225  A    between atoms: _571  and  _572
REMARK                            x       y       z     vdW  Elec       q    Type
REMARK                         _______ _______ _______ _____ _____    ______ ____
ROOT
ATOM      1  O   HOH     1      -5.780  63.196 -13.499  0.00  0.00    +0.000 OA
ENDROOT
TORSDOF 0
REMARK  Name = ../refined-set-2016/4a6l/4a6l_pocket.pdb
REMARK  225 active torsions:
REMARK  status: ('A' for Active; 'I' for Inactive)
REMARK    1  A    between atoms: _1  and  _5
REMARK    2  A    between atoms: _5  and  _6
REMARK    3  A    between atoms: _5  and  _8
REMARK    4  A    between atoms: _8  and  _9
REMARK    5  A    between atoms: _12  and  _14
REMARK    6  A    between atoms: _14  and  _15
REMARK    7  A    between atoms: _14  and  _17
REMARK    8  A    between atoms: _20  and  _22
REMARK    9  A    between atoms: _22  and  _23
REMARK   10  A    between atoms: _22  and  _25
REMARK   11  A    between atoms: _25  and  _26
REMARK   12  A    between atoms: _31  and  _33
REMARK   13  A    between atoms: _33  and  _34
REMARK   14  A    between atoms: _37  and  _39
REMARK   15  A    between atoms: _39  and  _40
REMARK   16  A    between atoms: _39  and  _42
REMARK   17  A    between atoms: _42  and  _43
REMARK   18  A    between atoms: _43  and  _44
REMARK   19  A    between atoms: _49  and  _51
REMARK   20  A    between atoms: _51  and  _52
REMARK   21  A    between atoms: _51  and  _54
REMARK   22  A    between atoms: _57  and  _59
REMARK   23  A    between atoms: _59  and  _60
REMARK   24  A    between atoms: _59  and  _62
REMARK   25  A    between atoms: _62  and  _63
REMARK   26  A    between atoms: _66  and  _68
REMARK   27  A    between atoms: _68  and  _69
REMARK   28  A    between atoms: _68  and  _71
REMARK   29  A    between atoms: _71  and  _72
REMARK   30  A    between atoms: _77  and  _79
REMARK   31  A    between atoms: _79  and  _80
REMARK   32  A    between atoms: _79  and  _82
REMARK   33  A    between atoms: _82  and  _83
REMARK   34  A    between atoms: _86  and  _88
REMARK   35  A    between atoms: _88  and  _89
REMARK   36  A    between atoms: _88  and  _91
REMARK   37  A    between atoms: _91  and  _92
REMARK   38  A    between atoms: _95  and  _97
REMARK   39  A    between atoms: _97  and  _98
REMARK   40  A    between atoms: _97  and  _100
REMARK   41  A    between atoms: _100  and  _101
REMARK   42  A    between atoms: _101  and  _102
REMARK   43  A    between atoms: _102  and  _103
REMARK   44  A    between atoms: _103  and  _104
REMARK   45  A    between atoms: _108  and  _110
REMARK   46  A    between atoms: _110  and  _111
REMARK   47  A    between atoms: _110  and  _113
REMARK   48  A    between atoms: _113  and  _114
REMARK   49  A    between atoms: _119  and  _120
REMARK   50  A    between atoms: _122  and  _124
REMARK   51  A    between atoms: _124  and  _125
REMARK   52  A    between atoms: _124  and  _127
REMARK   53  A    between atoms: _127  and  _128
REMARK   54  A    between atoms: _133  and  _135
REMARK   55  A    between atoms: _135  and  _136
REMARK   56  A    between atoms: _135  and  _138
REMARK   57  A    between atoms: _138  and  _139
REMARK   58  A    between atoms: _142  and  _144
REMARK   59  A    between atoms: _144  and  _145
REMARK   60  A    between atoms: _147  and  _149
REMARK   61  A    between atoms: _149  and  _150
REMARK   62  A    between atoms: _153  and  _155
REMARK   63  A    between atoms: _155  and  _156
REMARK   64  A    between atoms: _155  and  _158
REMARK   65  A    between atoms: _158  and  _159
REMARK   66  A    between atoms: _164  and  _165
REMARK   67  A    between atoms: _167  and  _169
REMARK   68  A    between atoms: _169  and  _170
REMARK   69  A    between atoms: _169  and  _172
REMARK   70  A    between atoms: _172  and  _173
REMARK   71  A    between atoms: _176  and  _178
REMARK   72  A    between atoms: _178  and  _179
REMARK   73  A    between atoms: _178  and  _181
REMARK   74  A    between atoms: _184  and  _186
REMARK   75  A    between atoms: _186  and  _187
REMARK   76  A    between atoms: _186  and  _189
REMARK   77  A    between atoms: _189  and  _190
REMARK   78  A    between atoms: _190  and  _191
REMARK   79  A    between atoms: _191  and  _192
REMARK   80  A    between atoms: _201  and  _203
REMARK   81  A    between atoms: _203  and  _204
REMARK   82  A    between atoms: _203  and  _206
REMARK   83  A    between atoms: _206  and  _207
REMARK   84  A    between atoms: _210  and  _212
REMARK   85  A    between atoms: _212  and  _213
REMARK   86  A    between atoms: _212  and  _215
REMARK   87  A    between atoms: _218  and  _220
REMARK   88  A    between atoms: _220  and  _221
REMARK   89  A    between atoms: _220  and  _223
REMARK   90  A    between atoms: _223  and  _224
REMARK   91  A    between atoms: _224  and  _225
REMARK   92  A    between atoms: _225  and  _226
REMARK   93  A    between atoms: _235  and  _237
REMARK   94  A    between atoms: _237  and  _238
REMARK   95  A    between atoms: _241  and  _243
REMARK   96  A    between atoms: _243  and  _244
REMARK   97  A    between atoms: _246  and  _248
REMARK   98  A    between atoms: _248  and  _249
REMARK   99  A    between atoms: _248  and  _251
REMARK  100  A    between atoms: _251  and  _252
REMARK  101  A    between atoms: _257  and  _259
REMARK  102  A    between atoms: _259  and  _260
REMARK  103  A    between atoms: _259  and  _262
REMARK  104  A    between atoms: _262  and  _263
REMARK  105  A    between atoms: _263  and  _264
REMARK  106  A    between atoms: _264  and  _265
REMARK  107  A    between atoms: _274  and  _276
REMARK  108  A    between atoms: _276  and  _277
REMARK  109  A    between atoms: _276  and  _279
REMARK  110  A    between atoms: _279  and  _280
REMARK  111  A    between atoms: _283  and  _285
REMARK  112  A    between atoms: _285  and  _286
REMARK  113  A    between atoms: _285  and  _288
REMARK  114  A    between atoms: _288  and  _289
REMARK  115  A    between atoms: _291  and  _293
REMARK  116  A    between atoms: _293  and  _294
REMARK  117  A    between atoms: _293  and  _296
REMARK  118  A    between atoms: _296  and  _297
REMARK  119  A    between atoms: _297  and  _408
REMARK  120  A    between atoms: _298  and  _300
REMARK  121  A    between atoms: _300  and  _301
REMARK  122  A    between atoms: _300  and  _303
REMARK  123  A    between atoms: _303  and  _304
REMARK  124  A    between atoms: _304  and  _305
REMARK  125  A    between atoms: _310  and  _312
REMARK  126  A    between atoms: _312  and  _313
REMARK  127  A    between atoms: _315  and  _317
REMARK  128  A    between atoms: _317  and  _318
REMARK  129  A    between atoms: _317  and  _320
REMARK  130  A    between atoms: _320  and  _321
REMARK  131  A    between atoms: _324  and  _326
REMARK  132  A    between atoms: _326  and  _327
REMARK  133  A    between atoms: _326  and  _329
REMARK  134  A    between atoms: _329  and  _330
REMARK  135  A    between atoms: _332  and  _334
REMARK  136  A    between atoms: _334  and  _335
REMARK  137  A    between atoms: _337  and  _339
REMARK  138  A    between atoms: _339  and  _340
REMARK  139  A    between atoms: _342  and  _344
REMARK  140  A    between atoms: _344  and  _345
REMARK  141  A    between atoms: _344  and  _347
REMARK  142  A    between atoms: _350  and  _352
REMARK  143  A    between atoms: _352  and  _353
REMARK  144  A    between atoms: _352  and  _355
REMARK  145  A    between atoms: _358  and  _360
REMARK  146  A    between atoms: _360  and  _361
REMARK  147  A    between atoms: _360  and  _363
REMARK  148  A    between atoms: _363  and  _364
REMARK  149  A    between atoms: _366  and  _368
REMARK  150  A    between atoms: _368  and  _369
REMARK  151  A    between atoms: _368  and  _371
REMARK  152  A    between atoms: _371  and  _372
REMARK  153  A    between atoms: _382  and  _384
REMARK  154  A    between atoms: _384  and  _385
REMARK  155  A    between atoms: _387  and  _389
REMARK  156  A    between atoms: _389  and  _390
REMARK  157  A    between atoms: _389  and  _392
REMARK  158  A    between atoms: _392  and  _393
REMARK  159  A    between atoms: _393  and  _394
REMARK  160  A    between atoms: _397  and  _399
REMARK  161  A    between atoms: _399  and  _400
REMARK  162  A    between atoms: _402  and  _404
REMARK  163  A    between atoms: _404  and  _405
REMARK  164  A    between atoms: _404  and  _407
REMARK  165  A    between atoms: _407  and  _408
REMARK  166  A    between atoms: _409  and  _411
REMARK  167  A    between atoms: _411  and  _412
REMARK  168  A    between atoms: _415  and  _417
REMARK  169  A    between atoms: _417  and  _418
REMARK  170  A    between atoms: _417  and  _420
REMARK  171  A    between atoms: _420  and  _421
REMARK  172  A    between atoms: _421  and  _422
REMARK  173  A    between atoms: _427  and  _429
REMARK  174  A    between atoms: _429  and  _430
REMARK  175  A    between atoms: _429  and  _432
REMARK  176  A    between atoms: _432  and  _433
REMARK  177  A    between atoms: _438  and  _440
REMARK  178  A    between atoms: _440  and  _441
REMARK  179  A    between atoms: _440  and  _443
REMARK  180  A    between atoms: _443  and  _444
REMARK  181  A    between atoms: _444  and  _445
REMARK  182  A    between atoms: _445  and  _446
REMARK  183  A    between atoms: _456  and  _457
REMARK  184  A    between atoms: _462  and  _464
REMARK  185  A    between atoms: _464  and  _465
REMARK  186  A    between atoms: _467  and  _469
REMARK  187  A    between atoms: _469  and  _470
REMARK  188  A    between atoms: _469  and  _472
REMARK  189  A    between atoms: _472  and  _473
REMARK  190  A    between atoms: _476  and  _478
REMARK  191  A    between atoms: _478  and  _479
REMARK  192  A    between atoms: _478  and  _481
REMARK  193  A    between atoms: _481  and  _482
REMARK  194  A    between atoms: _487  and  _488
REMARK  195  A    between atoms: _490  and  _492
REMARK  196  A    between atoms: _492  and  _493
REMARK  197  A    between atoms: _496  and  _497
REMARK  198  A    between atoms: _502  and  _504
REMARK  199  A    between atoms: _504  and  _505
REMARK  200  A    between atoms: _504  and  _507
REMARK  201  A    between atoms: _507  and  _508
REMARK  202  A    between atoms: _511  and  _513
REMARK  203  A    between atoms: _513  and  _514
REMARK  204  A    between atoms: _513  and  _516
REMARK  205  A    between atoms: _519  and  _521
REMARK  206  A    between atoms: _521  and  _522
REMARK  207  A    between atoms: _521  and  _524
REMARK  208  A    between atoms: _524  and  _525
REMARK  209  A    between atoms: _533  and  _534
REMARK  210  A    between atoms: _533  and  _536
REMARK  211  A    between atoms: _536  and  _537
REMARK  212  A    between atoms: _542  and  _543
REMARK  213  A    between atoms: _545  and  _547
REMARK  214  A    between atoms: _547  and  _548
REMARK  215  A    between atoms: _547  and  _550
REMARK  216  A    between atoms: _550  and  _551
REMARK  217  A    between atoms: _554  and  _556
REMARK  218  A    between atoms: _556  and  _557
REMARK  219  A    between atoms: _556  and  _559
REMARK  220  A    between atoms: _559  and  _560
REMARK  221  A    between atoms: _560  and  _561
REMARK  222  A    between atoms: _566  and  _568
REMARK  223  A    between atoms: _568  and  _569
REMARK  224  A    between atoms: _568  and  _571
REMARK  225  A    between atoms: _571  and  _572
REMARK                            x       y       z     vdW  Elec       q    Type
REMARK                         _______ _______ _______ _____ _____    ______ ____
ROOT
ATOM      1  O   HOH     1      -6.231  61.446 -15.719  0.00  0.00    +0.000 OA
ENDROOT
TORSDOF 0
REMARK  Name = ../refined-set-2016/4a6l/4a6l_pocket.pdb
REMARK  225 active torsions:
REMARK  status: ('A' for Active; 'I' for Inactive)
REMARK    1  A    between atoms: _1  and  _5
REMARK    2  A    between atoms: _5  and  _6
REMARK    3  A    between atoms: _5  and  _8
REMARK    4  A    between atoms: _8  and  _9
REMARK    5  A    between atoms: _12  and  _14
REMARK    6  A    between atoms: _14  and  _15
REMARK    7  A    between atoms: _14  and  _17
REMARK    8  A    between atoms: _20  and  _22
REMARK    9  A    between atoms: _22  and  _23
REMARK   10  A    between atoms: _22  and  _25
REMARK   11  A    between atoms: _25  and  _26
REMARK   12  A    between atoms: _31  and  _33
REMARK   13  A    between atoms: _33  and  _34
REMARK   14  A    between atoms: _37  and  _39
REMARK   15  A    between atoms: _39  and  _40
REMARK   16  A    between atoms: _39  and  _42
REMARK   17  A    between atoms: _42  and  _43
REMARK   18  A    between atoms: _43  and  _44
REMARK   19  A    between atoms: _49  and  _51
REMARK   20  A    between atoms: _51  and  _52
REMARK   21  A    between atoms: _51  and  _54
REMARK   22  A    between atoms: _57  and  _59
REMARK   23  A    between atoms: _59  and  _60
REMARK   24  A    between atoms: _59  and  _62
REMARK   25  A    between atoms: _62  and  _63
REMARK   26  A    between atoms: _66  and  _68
REMARK   27  A    between atoms: _68  and  _69
REMARK   28  A    between atoms: _68  and  _71
REMARK   29  A    between atoms: _71  and  _72
REMARK   30  A    between atoms: _77  and  _79
REMARK   31  A    between atoms: _79  and  _80
REMARK   32  A    between atoms: _79  and  _82
REMARK   33  A    between atoms: _82  and  _83
REMARK   34  A    between atoms: _86  and  _88
REMARK   35  A    between atoms: _88  and  _89
REMARK   36  A    between atoms: _88  and  _91
REMARK   37  A    between atoms: _91  and  _92
REMARK   38  A    between atoms: _95  and  _97
REMARK   39  A    between atoms: _97  and  _98
REMARK   40  A    between atoms: _97  and  _100
REMARK   41  A    between atoms: _100  and  _101
REMARK   42  A    between atoms: _101  and  _102
REMARK   43  A    between atoms: _102  and  _103
REMARK   44  A    between atoms: _103  and  _104
REMARK   45  A    between atoms: _108  and  _110
REMARK   46  A    between atoms: _110  and  _111
REMARK   47  A    between atoms: _110  and  _113
REMARK   48  A    between atoms: _113  and  _114
REMARK   49  A    between atoms: _119  and  _120
REMARK   50  A    between atoms: _122  and  _124
REMARK   51  A    between atoms: _124  and  _125
REMARK   52  A    between atoms: _124  and  _127
REMARK   53  A    between atoms: _127  and  _128
REMARK   54  A    between atoms: _133  and  _135
REMARK   55  A    between atoms: _135  and  _136
REMARK   56  A    between atoms: _135  and  _138
REMARK   57  A    between atoms: _138  and  _139
REMARK   58  A    between atoms: _142  and  _144
REMARK   59  A    between atoms: _144  and  _145
REMARK   60  A    between atoms: _147  and  _149
REMARK   61  A    between atoms: _149  and  _150
REMARK   62  A    between atoms: _153  and  _155
REMARK   63  A    between atoms: _155  and  _156
REMARK   64  A    between atoms: _155  and  _158
REMARK   65  A    between atoms: _158  and  _159
REMARK   66  A    between atoms: _164  and  _165
REMARK   67  A    between atoms: _167  and  _169
REMARK   68  A    between atoms: _169  and  _170
REMARK   69  A    between atoms: _169  and  _172
REMARK   70  A    between atoms: _172  and  _173
REMARK   71  A    between atoms: _176  and  _178
REMARK   72  A    between atoms: _178  and  _179
REMARK   73  A    between atoms: _178  and  _181
REMARK   74  A    between atoms: _184  and  _186
REMARK   75  A    between atoms: _186  and  _187
REMARK   76  A    between atoms: _186  and  _189
REMARK   77  A    between atoms: _189  and  _190
REMARK   78  A    between atoms: _190  and  _191
REMARK   79  A    between atoms: _191  and  _192
REMARK   80  A    between atoms: _201  and  _203
REMARK   81  A    between atoms: _203  and  _204
REMARK   82  A    between atoms: _203  and  _206
REMARK   83  A    between atoms: _206  and  _207
REMARK   84  A    between atoms: _210  and  _212
REMARK   85  A    between atoms: _212  and  _213
REMARK   86  A    between atoms: _212  and  _215
REMARK   87  A    between atoms: _218  and  _220
REMARK   88  A    between atoms: _220  and  _221
REMARK   89  A    between atoms: _220  and  _223
REMARK   90  A    between atoms: _223  and  _224
REMARK   91  A    between atoms: _224  and  _225
REMARK   92  A    between atoms: _225  and  _226
REMARK   93  A    between atoms: _235  and  _237
REMARK   94  A    between atoms: _237  and  _238
REMARK   95  A    between atoms: _241  and  _243
REMARK   96  A    between atoms: _243  and  _244
REMARK   97  A    between atoms: _246  and  _248
REMARK   98  A    between atoms: _248  and  _249
REMARK   99  A    between atoms: _248  and  _251
REMARK  100  A    between atoms: _251  and  _252
REMARK  101  A    between atoms: _257  and  _259
REMARK  102  A    between atoms: _259  and  _260
REMARK  103  A    between atoms: _259  and  _262
REMARK  104  A    between atoms: _262  and  _263
REMARK  105  A    between atoms: _263  and  _264
REMARK  106  A    between atoms: _264  and  _265
REMARK  107  A    between atoms: _274  and  _276
REMARK  108  A    between atoms: _276  and  _277
REMARK  109  A    between atoms: _276  and  _279
REMARK  110  A    between atoms: _279  and  _280
REMARK  111  A    between atoms: _283  and  _285
REMARK  112  A    between atoms: _285  and  _286
REMARK  113  A    between atoms: _285  and  _288
REMARK  114  A    between atoms: _288  and  _289
REMARK  115  A    between atoms: _291  and  _293
REMARK  116  A    between atoms: _293  and  _294
REMARK  117  A    between atoms: _293  and  _296
REMARK  118  A    between atoms: _296  and  _297
REMARK  119  A    between atoms: _297  and  _408
REMARK  120  A    between atoms: _298  and  _300
REMARK  121  A    between atoms: _300  and  _301
REMARK  122  A    between atoms: _300  and  _303
REMARK  123  A    between atoms: _303  and  _304
REMARK  124  A    between atoms: _304  and  _305
REMARK  125  A    between atoms: _310  and  _312
REMARK  126  A    between atoms: _312  and  _313
REMARK  127  A    between atoms: _315  and  _317
REMARK  128  A    between atoms: _317  and  _318
REMARK  129  A    between atoms: _317  and  _320
REMARK  130  A    between atoms: _320  and  _321
REMARK  131  A    between atoms: _324  and  _326
REMARK  132  A    between atoms: _326  and  _327
REMARK  133  A    between atoms: _326  and  _329
REMARK  134  A    between atoms: _329  and  _330
REMARK  135  A    between atoms: _332  and  _334
REMARK  136  A    between atoms: _334  and  _335
REMARK  137  A    between atoms: _337  and  _339
REMARK  138  A    between atoms: _339  and  _340
REMARK  139  A    between atoms: _342  and  _344
REMARK  140  A    between atoms: _344  and  _345
REMARK  141  A    between atoms: _344  and  _347
REMARK  142  A    between atoms: _350  and  _352
REMARK  143  A    between atoms: _352  and  _353
REMARK  144  A    between atoms: _352  and  _355
REMARK  145  A    between atoms: _358  and  _360
REMARK  146  A    between atoms: _360  and  _361
REMARK  147  A    between atoms: _360  and  _363
REMARK  148  A    between atoms: _363  and  _364
REMARK  149  A    between atoms: _366  and  _368
REMARK  150  A    between atoms: _368  and  _369
REMARK  151  A    between atoms: _368  and  _371
REMARK  152  A    between atoms: _371  and  _372
REMARK  153  A    between atoms: _382  and  _384
REMARK  154  A    between atoms: _384  and  _385
REMARK  155  A    between atoms: _387  and  _389
REMARK  156  A    between atoms: _389  and  _390
REMARK  157  A    between atoms: _389  and  _392
REMARK  158  A    between atoms: _392  and  _393
REMARK  159  A    between atoms: _393  and  _394
REMARK  160  A    between atoms: _397  and  _399
REMARK  161  A    between atoms: _399  and  _400
REMARK  162  A    between atoms: _402  and  _404
REMARK  163  A    between atoms: _404  and  _405
REMARK  164  A    between atoms: _404  and  _407
REMARK  165  A    between atoms: _407  and  _408
REMARK  166  A    between atoms: _409  and  _411
REMARK  167  A    between atoms: _411  and  _412
REMARK  168  A    between atoms: _415  and  _417
REMARK  169  A    between atoms: _417  and  _418
REMARK  170  A    between atoms: _417  and  _420
REMARK  171  A    between atoms: _420  and  _421
REMARK  172  A    between atoms: _421  and  _422
REMARK  173  A    between atoms: _427  and  _429
REMARK  174  A    between atoms: _429  and  _430
REMARK  175  A    between atoms: _429  and  _432
REMARK  176  A    between atoms: _432  and  _433
REMARK  177  A    between atoms: _438  and  _440
REMARK  178  A    between atoms: _440  and  _441
REMARK  179  A    between atoms: _440  and  _443
REMARK  180  A    between atoms: _443  and  _444
REMARK  181  A    between atoms: _444  and  _445
REMARK  182  A    between atoms: _445  and  _446
REMARK  183  A    between atoms: _456  and  _457
REMARK  184  A    between atoms: _462  and  _464
REMARK  185  A    between atoms: _464  and  _465
REMARK  186  A    between atoms: _467  and  _469
REMARK  187  A    between atoms: _469  and  _470
REMARK  188  A    between atoms: _469  and  _472
REMARK  189  A    between atoms: _472  and  _473
REMARK  190  A    between atoms: _476  and  _478
REMARK  191  A    between atoms: _478  and  _479
REMARK  192  A    between atoms: _478  and  _481
REMARK  193  A    between atoms: _481  and  _482
REMARK  194  A    between atoms: _487  and  _488
REMARK  195  A    between atoms: _490  and  _492
REMARK  196  A    between atoms: _492  and  _493
REMARK  197  A    between atoms: _496  and  _497
REMARK  198  A    between atoms: _502  and  _504
REMARK  199  A    between atoms: _504  and  _505
REMARK  200  A    between atoms: _504  and  _507
REMARK  201  A    between atoms: _507  and  _508
REMARK  202  A    between atoms: _511  and  _513
REMARK  203  A    between atoms: _513  and  _514
REMARK  204  A    between atoms: _513  and  _516
REMARK  205  A    between atoms: _519  and  _521
REMARK  206  A    between atoms: _521  and  _522
REMARK  207  A    between atoms: _521  and  _524
REMARK  208  A    between atoms: _524  and  _525
REMARK  209  A    between atoms: _533  and  _534
REMARK  210  A    between atoms: _533  and  _536
REMARK  211  A    between atoms: _536  and  _537
REMARK  212  A    between atoms: _542  and  _543
REMARK  213  A    between atoms: _545  and  _547
REMARK  214  A    between atoms: _547  and  _548
REMARK  215  A    between atoms: _547  and  _550
REMARK  216  A    between atoms: _550  and  _551
REMARK  217  A    between atoms: _554  and  _556
REMARK  218  A    between atoms: _556  and  _557
REMARK  219  A    between atoms: _556  and  _559
REMARK  220  A    between atoms: _559  and  _560
REMARK  221  A    between atoms: _560  and  _561
REMARK  222  A    between atoms: _566  and  _568
REMARK  223  A    between atoms: _568  and  _569
REMARK  224  A    between atoms: _568  and  _571
REMARK  225  A    between atoms: _571  and  _572
REMARK                            x       y       z     vdW  Elec       q    Type
REMARK                         _______ _______ _______ _____ _____    ______ ____
ROOT
ATOM      1  O   HOH     1      -1.954  61.460   0.158  0.00  0.00    +0.000 OA
ENDROOT
TORSDOF 0
REMARK  Name = ../refined-set-2016/4a6l/4a6l_pocket.pdb
REMARK  225 active torsions:
REMARK  status: ('A' for Active; 'I' for Inactive)
REMARK    1  A    between atoms: _1  and  _5
REMARK    2  A    between atoms: _5  and  _6
REMARK    3  A    between atoms: _5  and  _8
REMARK    4  A    between atoms: _8  and  _9
REMARK    5  A    between atoms: _12  and  _14
REMARK    6  A    between atoms: _14  and  _15
REMARK    7  A    between atoms: _14  and  _17
REMARK    8  A    between atoms: _20  and  _22
REMARK    9  A    between atoms: _22  and  _23
REMARK   10  A    between atoms: _22  and  _25
REMARK   11  A    between atoms: _25  and  _26
REMARK   12  A    between atoms: _31  and  _33
REMARK   13  A    between atoms: _33  and  _34
REMARK   14  A    between atoms: _37  and  _39
REMARK   15  A    between atoms: _39  and  _40
REMARK   16  A    between atoms: _39  and  _42
REMARK   17  A    between atoms: _42  and  _43
REMARK   18  A    between atoms: _43  and  _44
REMARK   19  A    between atoms: _49  and  _51
REMARK   20  A    between atoms: _51  and  _52
REMARK   21  A    between atoms: _51  and  _54
REMARK   22  A    between atoms: _57  and  _59
REMARK   23  A    between atoms: _59  and  _60
REMARK   24  A    between atoms: _59  and  _62
REMARK   25  A    between atoms: _62  and  _63
REMARK   26  A    between atoms: _66  and  _68
REMARK   27  A    between atoms: _68  and  _69
REMARK   28  A    between atoms: _68  and  _71
REMARK   29  A    between atoms: _71  and  _72
REMARK   30  A    between atoms: _77  and  _79
REMARK   31  A    between atoms: _79  and  _80
REMARK   32  A    between atoms: _79  and  _82
REMARK   33  A    between atoms: _82  and  _83
REMARK   34  A    between atoms: _86  and  _88
REMARK   35  A    between atoms: _88  and  _89
REMARK   36  A    between atoms: _88  and  _91
REMARK   37  A    between atoms: _91  and  _92
REMARK   38  A    between atoms: _95  and  _97
REMARK   39  A    between atoms: _97  and  _98
REMARK   40  A    between atoms: _97  and  _100
REMARK   41  A    between atoms: _100  and  _101
REMARK   42  A    between atoms: _101  and  _102
REMARK   43  A    between atoms: _102  and  _103
REMARK   44  A    between atoms: _103  and  _104
REMARK   45  A    between atoms: _108  and  _110
REMARK   46  A    between atoms: _110  and  _111
REMARK   47  A    between atoms: _110  and  _113
REMARK   48  A    between atoms: _113  and  _114
REMARK   49  A    between atoms: _119  and  _120
REMARK   50  A    between atoms: _122  and  _124
REMARK   51  A    between atoms: _124  and  _125
REMARK   52  A    between atoms: _124  and  _127
REMARK   53  A    between atoms: _127  and  _128
REMARK   54  A    between atoms: _133  and  _135
REMARK   55  A    between atoms: _135  and  _136
REMARK   56  A    between atoms: _135  and  _138
REMARK   57  A    between atoms: _138  and  _139
REMARK   58  A    between atoms: _142  and  _144
REMARK   59  A    between atoms: _144  and  _145
REMARK   60  A    between atoms: _147  and  _149
REMARK   61  A    between atoms: _149  and  _150
REMARK   62  A    between atoms: _153  and  _155
REMARK   63  A    between atoms: _155  and  _156
REMARK   64  A    between atoms: _155  and  _158
REMARK   65  A    between atoms: _158  and  _159
REMARK   66  A    between atoms: _164  and  _165
REMARK   67  A    between atoms: _167  and  _169
REMARK   68  A    between atoms: _169  and  _170
REMARK   69  A    between atoms: _169  and  _172
REMARK   70  A    between atoms: _172  and  _173
REMARK   71  A    between atoms: _176  and  _178
REMARK   72  A    between atoms: _178  and  _179
REMARK   73  A    between atoms: _178  and  _181
REMARK   74  A    between atoms: _184  and  _186
REMARK   75  A    between atoms: _186  and  _187
REMARK   76  A    between atoms: _186  and  _189
REMARK   77  A    between atoms: _189  and  _190
REMARK   78  A    between atoms: _190  and  _191
REMARK   79  A    between atoms: _191  and  _192
REMARK   80  A    between atoms: _201  and  _203
REMARK   81  A    between atoms: _203  and  _204
REMARK   82  A    between atoms: _203  and  _206
REMARK   83  A    between atoms: _206  and  _207
REMARK   84  A    between atoms: _210  and  _212
REMARK   85  A    between atoms: _212  and  _213
REMARK   86  A    between atoms: _212  and  _215
REMARK   87  A    between atoms: _218  and  _220
REMARK   88  A    between atoms: _220  and  _221
REMARK   89  A    between atoms: _220  and  _223
REMARK   90  A    between atoms: _223  and  _224
REMARK   91  A    between atoms: _224  and  _225
REMARK   92  A    between atoms: _225  and  _226
REMARK   93  A    between atoms: _235  and  _237
REMARK   94  A    between atoms: _237  and  _238
REMARK   95  A    between atoms: _241  and  _243
REMARK   96  A    between atoms: _243  and  _244
REMARK   97  A    between atoms: _246  and  _248
REMARK   98  A    between atoms: _248  and  _249
REMARK   99  A    between atoms: _248  and  _251
REMARK  100  A    between atoms: _251  and  _252
REMARK  101  A    between atoms: _257  and  _259
REMARK  102  A    between atoms: _259  and  _260
REMARK  103  A    between atoms: _259  and  _262
REMARK  104  A    between atoms: _262  and  _263
REMARK  105  A    between atoms: _263  and  _264
REMARK  106  A    between atoms: _264  and  _265
REMARK  107  A    between atoms: _274  and  _276
REMARK  108  A    between atoms: _276  and  _277
REMARK  109  A    between atoms: _276  and  _279
REMARK  110  A    between atoms: _279  and  _280
REMARK  111  A    between atoms: _283  and  _285
REMARK  112  A    between atoms: _285  and  _286
REMARK  113  A    between atoms: _285  and  _288
REMARK  114  A    between atoms: _288  and  _289
REMARK  115  A    between atoms: _291  and  _293
REMARK  116  A    between atoms: _293  and  _294
REMARK  117  A    between atoms: _293  and  _296
REMARK  118  A    between atoms: _296  and  _297
REMARK  119  A    between atoms: _297  and  _408
REMARK  120  A    between atoms: _298  and  _300
REMARK  121  A    between atoms: _300  and  _301
REMARK  122  A    between atoms: _300  and  _303
REMARK  123  A    between atoms: _303  and  _304
REMARK  124  A    between atoms: _304  and  _305
REMARK  125  A    between atoms: _310  and  _312
REMARK  126  A    between atoms: _312  and  _313
REMARK  127  A    between atoms: _315  and  _317
REMARK  128  A    between atoms: _317  and  _318
REMARK  129  A    between atoms: _317  and  _320
REMARK  130  A    between atoms: _320  and  _321
REMARK  131  A    between atoms: _324  and  _326
REMARK  132  A    between atoms: _326  and  _327
REMARK  133  A    between atoms: _326  and  _329
REMARK  134  A    between atoms: _329  and  _330
REMARK  135  A    between atoms: _332  and  _334
REMARK  136  A    between atoms: _334  and  _335
REMARK  137  A    between atoms: _337  and  _339
REMARK  138  A    between atoms: _339  and  _340
REMARK  139  A    between atoms: _342  and  _344
REMARK  140  A    between atoms: _344  and  _345
REMARK  141  A    between atoms: _344  and  _347
REMARK  142  A    between atoms: _350  and  _352
REMARK  143  A    between atoms: _352  and  _353
REMARK  144  A    between atoms: _352  and  _355
REMARK  145  A    between atoms: _358  and  _360
REMARK  146  A    between atoms: _360  and  _361
REMARK  147  A    between atoms: _360  and  _363
REMARK  148  A    between atoms: _363  and  _364
REMARK  149  A    between atoms: _366  and  _368
REMARK  150  A    between atoms: _368  and  _369
REMARK  151  A    between atoms: _368  and  _371
REMARK  152  A    between atoms: _371  and  _372
REMARK  153  A    between atoms: _382  and  _384
REMARK  154  A    between atoms: _384  and  _385
REMARK  155  A    between atoms: _387  and  _389
REMARK  156  A    between atoms: _389  and  _390
REMARK  157  A    between atoms: _389  and  _392
REMARK  158  A    between atoms: _392  and  _393
REMARK  159  A    between atoms: _393  and  _394
REMARK  160  A    between atoms: _397  and  _399
REMARK  161  A    between atoms: _399  and  _400
REMARK  162  A    between atoms: _402  and  _404
REMARK  163  A    between atoms: _404  and  _405
REMARK  164  A    between atoms: _404  and  _407
REMARK  165  A    between atoms: _407  and  _408
REMARK  166  A    between atoms: _409  and  _411
REMARK  167  A    between atoms: _411  and  _412
REMARK  168  A    between atoms: _415  and  _417
REMARK  169  A    between atoms: _417  and  _418
REMARK  170  A    between atoms: _417  and  _420
REMARK  171  A    between atoms: _420  and  _421
REMARK  172  A    between atoms: _421  and  _422
REMARK  173  A    between atoms: _427  and  _429
REMARK  174  A    between atoms: _429  and  _430
REMARK  175  A    between atoms: _429  and  _432
REMARK  176  A    between atoms: _432  and  _433
REMARK  177  A    between atoms: _438  and  _440
REMARK  178  A    between atoms: _440  and  _441
REMARK  179  A    between atoms: _440  and  _443
REMARK  180  A    between atoms: _443  and  _444
REMARK  181  A    between atoms: _444  and  _445
REMARK  182  A    between atoms: _445  and  _446
REMARK  183  A    between atoms: _456  and  _457
REMARK  184  A    between atoms: _462  and  _464
REMARK  185  A    between atoms: _464  and  _465
REMARK  186  A    between atoms: _467  and  _469
REMARK  187  A    between atoms: _469  and  _470
REMARK  188  A    between atoms: _469  and  _472
REMARK  189  A    between atoms: _472  and  _473
REMARK  190  A    between atoms: _476  and  _478
REMARK  191  A    between atoms: _478  and  _479
REMARK  192  A    between atoms: _478  and  _481
REMARK  193  A    between atoms: _481  and  _482
REMARK  194  A    between atoms: _487  and  _488
REMARK  195  A    between atoms: _490  and  _492
REMARK  196  A    between atoms: _492  and  _493
REMARK  197  A    between atoms: _496  and  _497
REMARK  198  A    between atoms: _502  and  _504
REMARK  199  A    between atoms: _504  and  _505
REMARK  200  A    between atoms: _504  and  _507
REMARK  201  A    between atoms: _507  and  _508
REMARK  202  A    between atoms: _511  and  _513
REMARK  203  A    between atoms: _513  and  _514
REMARK  204  A    between atoms: _513  and  _516
REMARK  205  A    between atoms: _519  and  _521
REMARK  206  A    between atoms: _521  and  _522
REMARK  207  A    between atoms: _521  and  _524
REMARK  208  A    between atoms: _524  and  _525
REMARK  209  A    between atoms: _533  and  _534
REMARK  210  A    between atoms: _533  and  _536
REMARK  211  A    between atoms: _536  and  _537
REMARK  212  A    between atoms: _542  and  _543
REMARK  213  A    between atoms: _545  and  _547
REMARK  214  A    between atoms: _547  and  _548
REMARK  215  A    between atoms: _547  and  _550
REMARK  216  A    between atoms: _550  and  _551
REMARK  217  A    between atoms: _554  and  _556
REMARK  218  A    between atoms: _556  and  _557
REMARK  219  A    between atoms: _556  and  _559
REMARK  220  A    between atoms: _559  and  _560
REMARK  221  A    between atoms: _560  and  _561
REMARK  222  A    between atoms: _566  and  _568
REMARK  223  A    between atoms: _568  and  _569
REMARK  224  A    between atoms: _568  and  _571
REMARK  225  A    between atoms: _571  and  _572
REMARK                            x       y       z     vdW  Elec       q    Type
REMARK                         _______ _______ _______ _____ _____    ______ ____
ROOT
ATOM      1  O   HOH     1      -4.674  59.081 -12.081  0.00  0.00    +0.000 OA
ENDROOT
TORSDOF 0
REMARK  Name = ../refined-set-2016/4a6l/4a6l_pocket.pdb
REMARK  225 active torsions:
REMARK  status: ('A' for Active; 'I' for Inactive)
REMARK    1  A    between atoms: _1  and  _5
REMARK    2  A    between atoms: _5  and  _6
REMARK    3  A    between atoms: _5  and  _8
REMARK    4  A    between atoms: _8  and  _9
REMARK    5  A    between atoms: _12  and  _14
REMARK    6  A    between atoms: _14  and  _15
REMARK    7  A    between atoms: _14  and  _17
REMARK    8  A    between atoms: _20  and  _22
REMARK    9  A    between atoms: _22  and  _23
REMARK   10  A    between atoms: _22  and  _25
REMARK   11  A    between atoms: _25  and  _26
REMARK   12  A    between atoms: _31  and  _33
REMARK   13  A    between atoms: _33  and  _34
REMARK   14  A    between atoms: _37  and  _39
REMARK   15  A    between atoms: _39  and  _40
REMARK   16  A    between atoms: _39  and  _42
REMARK   17  A    between atoms: _42  and  _43
REMARK   18  A    between atoms: _43  and  _44
REMARK   19  A    between atoms: _49  and  _51
REMARK   20  A    between atoms: _51  and  _52
REMARK   21  A    between atoms: _51  and  _54
REMARK   22  A    between atoms: _57  and  _59
REMARK   23  A    between atoms: _59  and  _60
REMARK   24  A    between atoms: _59  and  _62
REMARK   25  A    between atoms: _62  and  _63
REMARK   26  A    between atoms: _66  and  _68
REMARK   27  A    between atoms: _68  and  _69
REMARK   28  A    between atoms: _68  and  _71
REMARK   29  A    between atoms: _71  and  _72
REMARK   30  A    between atoms: _77  and  _79
REMARK   31  A    between atoms: _79  and  _80
REMARK   32  A    between atoms: _79  and  _82
REMARK   33  A    between atoms: _82  and  _83
REMARK   34  A    between atoms: _86  and  _88
REMARK   35  A    between atoms: _88  and  _89
REMARK   36  A    between atoms: _88  and  _91
REMARK   37  A    between atoms: _91  and  _92
REMARK   38  A    between atoms: _95  and  _97
REMARK   39  A    between atoms: _97  and  _98
REMARK   40  A    between atoms: _97  and  _100
REMARK   41  A    between atoms: _100  and  _101
REMARK   42  A    between atoms: _101  and  _102
REMARK   43  A    between atoms: _102  and  _103
REMARK   44  A    between atoms: _103  and  _104
REMARK   45  A    between atoms: _108  and  _110
REMARK   46  A    between atoms: _110  and  _111
REMARK   47  A    between atoms: _110  and  _113
REMARK   48  A    between atoms: _113  and  _114
REMARK   49  A    between atoms: _119  and  _120
REMARK   50  A    between atoms: _122  and  _124
REMARK   51  A    between atoms: _124  and  _125
REMARK   52  A    between atoms: _124  and  _127
REMARK   53  A    between atoms: _127  and  _128
REMARK   54  A    between atoms: _133  and  _135
REMARK   55  A    between atoms: _135  and  _136
REMARK   56  A    between atoms: _135  and  _138
REMARK   57  A    between atoms: _138  and  _139
REMARK   58  A    between atoms: _142  and  _144
REMARK   59  A    between atoms: _144  and  _145
REMARK   60  A    between atoms: _147  and  _149
REMARK   61  A    between atoms: _149  and  _150
REMARK   62  A    between atoms: _153  and  _155
REMARK   63  A    between atoms: _155  and  _156
REMARK   64  A    between atoms: _155  and  _158
REMARK   65  A    between atoms: _158  and  _159
REMARK   66  A    between atoms: _164  and  _165
REMARK   67  A    between atoms: _167  and  _169
REMARK   68  A    between atoms: _169  and  _170
REMARK   69  A    between atoms: _169  and  _172
REMARK   70  A    between atoms: _172  and  _173
REMARK   71  A    between atoms: _176  and  _178
REMARK   72  A    between atoms: _178  and  _179
REMARK   73  A    between atoms: _178  and  _181
REMARK   74  A    between atoms: _184  and  _186
REMARK   75  A    between atoms: _186  and  _187
REMARK   76  A    between atoms: _186  and  _189
REMARK   77  A    between atoms: _189  and  _190
REMARK   78  A    between atoms: _190  and  _191
REMARK   79  A    between atoms: _191  and  _192
REMARK   80  A    between atoms: _201  and  _203
REMARK   81  A    between atoms: _203  and  _204
REMARK   82  A    between atoms: _203  and  _206
REMARK   83  A    between atoms: _206  and  _207
REMARK   84  A    between atoms: _210  and  _212
REMARK   85  A    between atoms: _212  and  _213
REMARK   86  A    between atoms: _212  and  _215
REMARK   87  A    between atoms: _218  and  _220
REMARK   88  A    between atoms: _220  and  _221
REMARK   89  A    between atoms: _220  and  _223
REMARK   90  A    between atoms: _223  and  _224
REMARK   91  A    between atoms: _224  and  _225
REMARK   92  A    between atoms: _225  and  _226
REMARK   93  A    between atoms: _235  and  _237
REMARK   94  A    between atoms: _237  and  _238
REMARK   95  A    between atoms: _241  and  _243
REMARK   96  A    between atoms: _243  and  _244
REMARK   97  A    between atoms: _246  and  _248
REMARK   98  A    between atoms: _248  and  _249
REMARK   99  A    between atoms: _248  and  _251
REMARK  100  A    between atoms: _251  and  _252
REMARK  101  A    between atoms: _257  and  _259
REMARK  102  A    between atoms: _259  and  _260
REMARK  103  A    between atoms: _259  and  _262
REMARK  104  A    between atoms: _262  and  _263
REMARK  105  A    between atoms: _263  and  _264
REMARK  106  A    between atoms: _264  and  _265
REMARK  107  A    between atoms: _274  and  _276
REMARK  108  A    between atoms: _276  and  _277
REMARK  109  A    between atoms: _276  and  _279
REMARK  110  A    between atoms: _279  and  _280
REMARK  111  A    between atoms: _283  and  _285
REMARK  112  A    between atoms: _285  and  _286
REMARK  113  A    between atoms: _285  and  _288
REMARK  114  A    between atoms: _288  and  _289
REMARK  115  A    between atoms: _291  and  _293
REMARK  116  A    between atoms: _293  and  _294
REMARK  117  A    between atoms: _293  and  _296
REMARK  118  A    between atoms: _296  and  _297
REMARK  119  A    between atoms: _297  and  _408
REMARK  120  A    between atoms: _298  and  _300
REMARK  121  A    between atoms: _300  and  _301
REMARK  122  A    between atoms: _300  and  _303
REMARK  123  A    between atoms: _303  and  _304
REMARK  124  A    between atoms: _304  and  _305
REMARK  125  A    between atoms: _310  and  _312
REMARK  126  A    between atoms: _312  and  _313
REMARK  127  A    between atoms: _315  and  _317
REMARK  128  A    between atoms: _317  and  _318
REMARK  129  A    between atoms: _317  and  _320
REMARK  130  A    between atoms: _320  and  _321
REMARK  131  A    between atoms: _324  and  _326
REMARK  132  A    between atoms: _326  and  _327
REMARK  133  A    between atoms: _326  and  _329
REMARK  134  A    between atoms: _329  and  _330
REMARK  135  A    between atoms: _332  and  _334
REMARK  136  A    between atoms: _334  and  _335
REMARK  137  A    between atoms: _337  and  _339
REMARK  138  A    between atoms: _339  and  _340
REMARK  139  A    between atoms: _342  and  _344
REMARK  140  A    between atoms: _344  and  _345
REMARK  141  A    between atoms: _344  and  _347
REMARK  142  A    between atoms: _350  and  _352
REMARK  143  A    between atoms: _352  and  _353
REMARK  144  A    between atoms: _352  and  _355
REMARK  145  A    between atoms: _358  and  _360
REMARK  146  A    between atoms: _360  and  _361
REMARK  147  A    between atoms: _360  and  _363
REMARK  148  A    between atoms: _363  and  _364
REMARK  149  A    between atoms: _366  and  _368
REMARK  150  A    between atoms: _368  and  _369
REMARK  151  A    between atoms: _368  and  _371
REMARK  152  A    between atoms: _371  and  _372
REMARK  153  A    between atoms: _382  and  _384
REMARK  154  A    between atoms: _384  and  _385
REMARK  155  A    between atoms: _387  and  _389
REMARK  156  A    between atoms: _389  and  _390
REMARK  157  A    between atoms: _389  and  _392
REMARK  158  A    between atoms: _392  and  _393
REMARK  159  A    between atoms: _393  and  _394
REMARK  160  A    between atoms: _397  and  _399
REMARK  161  A    between atoms: _399  and  _400
REMARK  162  A    between atoms: _402  and  _404
REMARK  163  A    between atoms: _404  and  _405
REMARK  164  A    between atoms: _404  and  _407
REMARK  165  A    between atoms: _407  and  _408
REMARK  166  A    between atoms: _409  and  _411
REMARK  167  A    between atoms: _411  and  _412
REMARK  168  A    between atoms: _415  and  _417
REMARK  169  A    between atoms: _417  and  _418
REMARK  170  A    between atoms: _417  and  _420
REMARK  171  A    between atoms: _420  and  _421
REMARK  172  A    between atoms: _421  and  _422
REMARK  173  A    between atoms: _427  and  _429
REMARK  174  A    between atoms: _429  and  _430
REMARK  175  A    between atoms: _429  and  _432
REMARK  176  A    between atoms: _432  and  _433
REMARK  177  A    between atoms: _438  and  _440
REMARK  178  A    between atoms: _440  and  _441
REMARK  179  A    between atoms: _440  and  _443
REMARK  180  A    between atoms: _443  and  _444
REMARK  181  A    between atoms: _444  and  _445
REMARK  182  A    between atoms: _445  and  _446
REMARK  183  A    between atoms: _456  and  _457
REMARK  184  A    between atoms: _462  and  _464
REMARK  185  A    between atoms: _464  and  _465
REMARK  186  A    between atoms: _467  and  _469
REMARK  187  A    between atoms: _469  and  _470
REMARK  188  A    between atoms: _469  and  _472
REMARK  189  A    between atoms: _472  and  _473
REMARK  190  A    between atoms: _476  and  _478
REMARK  191  A    between atoms: _478  and  _479
REMARK  192  A    between atoms: _478  and  _481
REMARK  193  A    between atoms: _481  and  _482
REMARK  194  A    between atoms: _487  and  _488
REMARK  195  A    between atoms: _490  and  _492
REMARK  196  A    between atoms: _492  and  _493
REMARK  197  A    between atoms: _496  and  _497
REMARK  198  A    between atoms: _502  and  _504
REMARK  199  A    between atoms: _504  and  _505
REMARK  200  A    between atoms: _504  and  _507
REMARK  201  A    between atoms: _507  and  _508
REMARK  202  A    between atoms: _511  and  _513
REMARK  203  A    between atoms: _513  and  _514
REMARK  204  A    between atoms: _513  and  _516
REMARK  205  A    between atoms: _519  and  _521
REMARK  206  A    between atoms: _521  and  _522
REMARK  207  A    between atoms: _521  and  _524
REMARK  208  A    between atoms: _524  and  _525
REMARK  209  A    between atoms: _533  and  _534
REMARK  210  A    between atoms: _533  and  _536
REMARK  211  A    between atoms: _536  and  _537
REMARK  212  A    between atoms: _542  and  _543
REMARK  213  A    between atoms: _545  and  _547
REMARK  214  A    between atoms: _547  and  _548
REMARK  215  A    between atoms: _547  and  _550
REMARK  216  A    between atoms: _550  and  _551
REMARK  217  A    between atoms: _554  and  _556
REMARK  218  A    between atoms: _556  and  _557
REMARK  219  A    between atoms: _556  and  _559
REMARK  220  A    between atoms: _559  and  _560
REMARK  221  A    between atoms: _560  and  _561
REMARK  222  A    between atoms: _566  and  _568
REMARK  223  A    between atoms: _568  and  _569
REMARK  224  A    between atoms: _568  and  _571
REMARK  225  A    between atoms: _571  and  _572
REMARK                            x       y       z     vdW  Elec       q    Type
REMARK                         _______ _______ _______ _____ _____    ______ ____
ROOT
ATOM      1  O   HOH     1      -2.309  53.222 -10.509  0.00  0.00    +0.000 OA
ENDROOT
TORSDOF 0
REMARK  Name = ../refined-set-2016/4a6l/4a6l_pocket.pdb
REMARK  225 active torsions:
REMARK  status: ('A' for Active; 'I' for Inactive)
REMARK    1  A    between atoms: _1  and  _5
REMARK    2  A    between atoms: _5  and  _6
REMARK    3  A    between atoms: _5  and  _8
REMARK    4  A    between atoms: _8  and  _9
REMARK    5  A    between atoms: _12  and  _14
REMARK    6  A    between atoms: _14  and  _15
REMARK    7  A    between atoms: _14  and  _17
REMARK    8  A    between atoms: _20  and  _22
REMARK    9  A    between atoms: _22  and  _23
REMARK   10  A    between atoms: _22  and  _25
REMARK   11  A    between atoms: _25  and  _26
REMARK   12  A    between atoms: _31  and  _33
REMARK   13  A    between atoms: _33  and  _34
REMARK   14  A    between atoms: _37  and  _39
REMARK   15  A    between atoms: _39  and  _40
REMARK   16  A    between atoms: _39  and  _42
REMARK   17  A    between atoms: _42  and  _43
REMARK   18  A    between atoms: _43  and  _44
REMARK   19  A    between atoms: _49  and  _51
REMARK   20  A    between atoms: _51  and  _52
REMARK   21  A    between atoms: _51  and  _54
REMARK   22  A    between atoms: _57  and  _59
REMARK   23  A    between atoms: _59  and  _60
REMARK   24  A    between atoms: _59  and  _62
REMARK   25  A    between atoms: _62  and  _63
REMARK   26  A    between atoms: _66  and  _68
REMARK   27  A    between atoms: _68  and  _69
REMARK   28  A    between atoms: _68  and  _71
REMARK   29  A    between atoms: _71  and  _72
REMARK   30  A    between atoms: _77  and  _79
REMARK   31  A    between atoms: _79  and  _80
REMARK   32  A    between atoms: _79  and  _82
REMARK   33  A    between atoms: _82  and  _83
REMARK   34  A    between atoms: _86  and  _88
REMARK   35  A    between atoms: _88  and  _89
REMARK   36  A    between atoms: _88  and  _91
REMARK   37  A    between atoms: _91  and  _92
REMARK   38  A    between atoms: _95  and  _97
REMARK   39  A    between atoms: _97  and  _98
REMARK   40  A    between atoms: _97  and  _100
REMARK   41  A    between atoms: _100  and  _101
REMARK   42  A    between atoms: _101  and  _102
REMARK   43  A    between atoms: _102  and  _103
REMARK   44  A    between atoms: _103  and  _104
REMARK   45  A    between atoms: _108  and  _110
REMARK   46  A    between atoms: _110  and  _111
REMARK   47  A    between atoms: _110  and  _113
REMARK   48  A    between atoms: _113  and  _114
REMARK   49  A    between atoms: _119  and  _120
REMARK   50  A    between atoms: _122  and  _124
REMARK   51  A    between atoms: _124  and  _125
REMARK   52  A    between atoms: _124  and  _127
REMARK   53  A    between atoms: _127  and  _128
REMARK   54  A    between atoms: _133  and  _135
REMARK   55  A    between atoms: _135  and  _136
REMARK   56  A    between atoms: _135  and  _138
REMARK   57  A    between atoms: _138  and  _139
REMARK   58  A    between atoms: _142  and  _144
REMARK   59  A    between atoms: _144  and  _145
REMARK   60  A    between atoms: _147  and  _149
REMARK   61  A    between atoms: _149  and  _150
REMARK   62  A    between atoms: _153  and  _155
REMARK   63  A    between atoms: _155  and  _156
REMARK   64  A    between atoms: _155  and  _158
REMARK   65  A    between atoms: _158  and  _159
REMARK   66  A    between atoms: _164  and  _165
REMARK   67  A    between atoms: _167  and  _169
REMARK   68  A    between atoms: _169  and  _170
REMARK   69  A    between atoms: _169  and  _172
REMARK   70  A    between atoms: _172  and  _173
REMARK   71  A    between atoms: _176  and  _178
REMARK   72  A    between atoms: _178  and  _179
REMARK   73  A    between atoms: _178  and  _181
REMARK   74  A    between atoms: _184  and  _186
REMARK   75  A    between atoms: _186  and  _187
REMARK   76  A    between atoms: _186  and  _189
REMARK   77  A    between atoms: _189  and  _190
REMARK   78  A    between atoms: _190  and  _191
REMARK   79  A    between atoms: _191  and  _192
REMARK   80  A    between atoms: _201  and  _203
REMARK   81  A    between atoms: _203  and  _204
REMARK   82  A    between atoms: _203  and  _206
REMARK   83  A    between atoms: _206  and  _207
REMARK   84  A    between atoms: _210  and  _212
REMARK   85  A    between atoms: _212  and  _213
REMARK   86  A    between atoms: _212  and  _215
REMARK   87  A    between atoms: _218  and  _220
REMARK   88  A    between atoms: _220  and  _221
REMARK   89  A    between atoms: _220  and  _223
REMARK   90  A    between atoms: _223  and  _224
REMARK   91  A    between atoms: _224  and  _225
REMARK   92  A    between atoms: _225  and  _226
REMARK   93  A    between atoms: _235  and  _237
REMARK   94  A    between atoms: _237  and  _238
REMARK   95  A    between atoms: _241  and  _243
REMARK   96  A    between atoms: _243  and  _244
REMARK   97  A    between atoms: _246  and  _248
REMARK   98  A    between atoms: _248  and  _249
REMARK   99  A    between atoms: _248  and  _251
REMARK  100  A    between atoms: _251  and  _252
REMARK  101  A    between atoms: _257  and  _259
REMARK  102  A    between atoms: _259  and  _260
REMARK  103  A    between atoms: _259  and  _262
REMARK  104  A    between atoms: _262  and  _263
REMARK  105  A    between atoms: _263  and  _264
REMARK  106  A    between atoms: _264  and  _265
REMARK  107  A    between atoms: _274  and  _276
REMARK  108  A    between atoms: _276  and  _277
REMARK  109  A    between atoms: _276  and  _279
REMARK  110  A    between atoms: _279  and  _280
REMARK  111  A    between atoms: _283  and  _285
REMARK  112  A    between atoms: _285  and  _286
REMARK  113  A    between atoms: _285  and  _288
REMARK  114  A    between atoms: _288  and  _289
REMARK  115  A    between atoms: _291  and  _293
REMARK  116  A    between atoms: _293  and  _294
REMARK  117  A    between atoms: _293  and  _296
REMARK  118  A    between atoms: _296  and  _297
REMARK  119  A    between atoms: _297  and  _408
REMARK  120  A    between atoms: _298  and  _300
REMARK  121  A    between atoms: _300  and  _301
REMARK  122  A    between atoms: _300  and  _303
REMARK  123  A    between atoms: _303  and  _304
REMARK  124  A    between atoms: _304  and  _305
REMARK  125  A    between atoms: _310  and  _312
REMARK  126  A    between atoms: _312  and  _313
REMARK  127  A    between atoms: _315  and  _317
REMARK  128  A    between atoms: _317  and  _318
REMARK  129  A    between atoms: _317  and  _320
REMARK  130  A    between atoms: _320  and  _321
REMARK  131  A    between atoms: _324  and  _326
REMARK  132  A    between atoms: _326  and  _327
REMARK  133  A    between atoms: _326  and  _329
REMARK  134  A    between atoms: _329  and  _330
REMARK  135  A    between atoms: _332  and  _334
REMARK  136  A    between atoms: _334  and  _335
REMARK  137  A    between atoms: _337  and  _339
REMARK  138  A    between atoms: _339  and  _340
REMARK  139  A    between atoms: _342  and  _344
REMARK  140  A    between atoms: _344  and  _345
REMARK  141  A    between atoms: _344  and  _347
REMARK  142  A    between atoms: _350  and  _352
REMARK  143  A    between atoms: _352  and  _353
REMARK  144  A    between atoms: _352  and  _355
REMARK  145  A    between atoms: _358  and  _360
REMARK  146  A    between atoms: _360  and  _361
REMARK  147  A    between atoms: _360  and  _363
REMARK  148  A    between atoms: _363  and  _364
REMARK  149  A    between atoms: _366  and  _368
REMARK  150  A    between atoms: _368  and  _369
REMARK  151  A    between atoms: _368  and  _371
REMARK  152  A    between atoms: _371  and  _372
REMARK  153  A    between atoms: _382  and  _384
REMARK  154  A    between atoms: _384  and  _385
REMARK  155  A    between atoms: _387  and  _389
REMARK  156  A    between atoms: _389  and  _390
REMARK  157  A    between atoms: _389  and  _392
REMARK  158  A    between atoms: _392  and  _393
REMARK  159  A    between atoms: _393  and  _394
REMARK  160  A    between atoms: _397  and  _399
REMARK  161  A    between atoms: _399  and  _400
REMARK  162  A    between atoms: _402  and  _404
REMARK  163  A    between atoms: _404  and  _405
REMARK  164  A    between atoms: _404  and  _407
REMARK  165  A    between atoms: _407  and  _408
REMARK  166  A    between atoms: _409  and  _411
REMARK  167  A    between atoms: _411  and  _412
REMARK  168  A    between atoms: _415  and  _417
REMARK  169  A    between atoms: _417  and  _418
REMARK  170  A    between atoms: _417  and  _420
REMARK  171  A    between atoms: _420  and  _421
REMARK  172  A    between atoms: _421  and  _422
REMARK  173  A    between atoms: _427  and  _429
REMARK  174  A    between atoms: _429  and  _430
REMARK  175  A    between atoms: _429  and  _432
REMARK  176  A    between atoms: _432  and  _433
REMARK  177  A    between atoms: _438  and  _440
REMARK  178  A    between atoms: _440  and  _441
REMARK  179  A    between atoms: _440  and  _443
REMARK  180  A    between atoms: _443  and  _444
REMARK  181  A    between atoms: _444  and  _445
REMARK  182  A    between atoms: _445  and  _446
REMARK  183  A    between atoms: _456  and  _457
REMARK  184  A    between atoms: _462  and  _464
REMARK  185  A    between atoms: _464  and  _465
REMARK  186  A    between atoms: _467  and  _469
REMARK  187  A    between atoms: _469  and  _470
REMARK  188  A    between atoms: _469  and  _472
REMARK  189  A    between atoms: _472  and  _473
REMARK  190  A    between atoms: _476  and  _478
REMARK  191  A    between atoms: _478  and  _479
REMARK  192  A    between atoms: _478  and  _481
REMARK  193  A    between atoms: _481  and  _482
REMARK  194  A    between atoms: _487  and  _488
REMARK  195  A    between atoms: _490  and  _492
REMARK  196  A    between atoms: _492  and  _493
REMARK  197  A    between atoms: _496  and  _497
REMARK  198  A    between atoms: _502  and  _504
REMARK  199  A    between atoms: _504  and  _505
REMARK  200  A    between atoms: _504  and  _507
REMARK  201  A    between atoms: _507  and  _508
REMARK  202  A    between atoms: _511  and  _513
REMARK  203  A    between atoms: _513  and  _514
REMARK  204  A    between atoms: _513  and  _516
REMARK  205  A    between atoms: _519  and  _521
REMARK  206  A    between atoms: _521  and  _522
REMARK  207  A    between atoms: _521  and  _524
REMARK  208  A    between atoms: _524  and  _525
REMARK  209  A    between atoms: _533  and  _534
REMARK  210  A    between atoms: _533  and  _536
REMARK  211  A    between atoms: _536  and  _537
REMARK  212  A    between atoms: _542  and  _543
REMARK  213  A    between atoms: _545  and  _547
REMARK  214  A    between atoms: _547  and  _548
REMARK  215  A    between atoms: _547  and  _550
REMARK  216  A    between atoms: _550  and  _551
REMARK  217  A    between atoms: _554  and  _556
REMARK  218  A    between atoms: _556  and  _557
REMARK  219  A    between atoms: _556  and  _559
REMARK  220  A    between atoms: _559  and  _560
REMARK  221  A    between atoms: _560  and  _561
REMARK  222  A    between atoms: _566  and  _568
REMARK  223  A    between atoms: _568  and  _569
REMARK  224  A    between atoms: _568  and  _571
REMARK  225  A    between atoms: _571  and  _572
REMARK                            x       y       z     vdW  Elec       q    Type
REMARK                         _______ _______ _______ _____ _____    ______ ____
ROOT
ATOM      1  O   HOH     1      -7.878  46.833  -9.969  0.00  0.00    +0.000 OA
ENDROOT
TORSDOF 0
REMARK  Name = ../refined-set-2016/4a6l/4a6l_pocket.pdb
REMARK  225 active torsions:
REMARK  status: ('A' for Active; 'I' for Inactive)
REMARK    1  A    between atoms: _1  and  _5
REMARK    2  A    between atoms: _5  and  _6
REMARK    3  A    between atoms: _5  and  _8
REMARK    4  A    between atoms: _8  and  _9
REMARK    5  A    between atoms: _12  and  _14
REMARK    6  A    between atoms: _14  and  _15
REMARK    7  A    between atoms: _14  and  _17
REMARK    8  A    between atoms: _20  and  _22
REMARK    9  A    between atoms: _22  and  _23
REMARK   10  A    between atoms: _22  and  _25
REMARK   11  A    between atoms: _25  and  _26
REMARK   12  A    between atoms: _31  and  _33
REMARK   13  A    between atoms: _33  and  _34
REMARK   14  A    between atoms: _37  and  _39
REMARK   15  A    between atoms: _39  and  _40
REMARK   16  A    between atoms: _39  and  _42
REMARK   17  A    between atoms: _42  and  _43
REMARK   18  A    between atoms: _43  and  _44
REMARK   19  A    between atoms: _49  and  _51
REMARK   20  A    between atoms: _51  and  _52
REMARK   21  A    between atoms: _51  and  _54
REMARK   22  A    between atoms: _57  and  _59
REMARK   23  A    between atoms: _59  and  _60
REMARK   24  A    between atoms: _59  and  _62
REMARK   25  A    between atoms: _62  and  _63
REMARK   26  A    between atoms: _66  and  _68
REMARK   27  A    between atoms: _68  and  _69
REMARK   28  A    between atoms: _68  and  _71
REMARK   29  A    between atoms: _71  and  _72
REMARK   30  A    between atoms: _77  and  _79
REMARK   31  A    between atoms: _79  and  _80
REMARK   32  A    between atoms: _79  and  _82
REMARK   33  A    between atoms: _82  and  _83
REMARK   34  A    between atoms: _86  and  _88
REMARK   35  A    between atoms: _88  and  _89
REMARK   36  A    between atoms: _88  and  _91
REMARK   37  A    between atoms: _91  and  _92
REMARK   38  A    between atoms: _95  and  _97
REMARK   39  A    between atoms: _97  and  _98
REMARK   40  A    between atoms: _97  and  _100
REMARK   41  A    between atoms: _100  and  _101
REMARK   42  A    between atoms: _101  and  _102
REMARK   43  A    between atoms: _102  and  _103
REMARK   44  A    between atoms: _103  and  _104
REMARK   45  A    between atoms: _108  and  _110
REMARK   46  A    between atoms: _110  and  _111
REMARK   47  A    between atoms: _110  and  _113
REMARK   48  A    between atoms: _113  and  _114
REMARK   49  A    between atoms: _119  and  _120
REMARK   50  A    between atoms: _122  and  _124
REMARK   51  A    between atoms: _124  and  _125
REMARK   52  A    between atoms: _124  and  _127
REMARK   53  A    between atoms: _127  and  _128
REMARK   54  A    between atoms: _133  and  _135
REMARK   55  A    between atoms: _135  and  _136
REMARK   56  A    between atoms: _135  and  _138
REMARK   57  A    between atoms: _138  and  _139
REMARK   58  A    between atoms: _142  and  _144
REMARK   59  A    between atoms: _144  and  _145
REMARK   60  A    between atoms: _147  and  _149
REMARK   61  A    between atoms: _149  and  _150
REMARK   62  A    between atoms: _153  and  _155
REMARK   63  A    between atoms: _155  and  _156
REMARK   64  A    between atoms: _155  and  _158
REMARK   65  A    between atoms: _158  and  _159
REMARK   66  A    between atoms: _164  and  _165
REMARK   67  A    between atoms: _167  and  _169
REMARK   68  A    between atoms: _169  and  _170
REMARK   69  A    between atoms: _169  and  _172
REMARK   70  A    between atoms: _172  and  _173
REMARK   71  A    between atoms: _176  and  _178
REMARK   72  A    between atoms: _178  and  _179
REMARK   73  A    between atoms: _178  and  _181
REMARK   74  A    between atoms: _184  and  _186
REMARK   75  A    between atoms: _186  and  _187
REMARK   76  A    between atoms: _186  and  _189
REMARK   77  A    between atoms: _189  and  _190
REMARK   78  A    between atoms: _190  and  _191
REMARK   79  A    between atoms: _191  and  _192
REMARK   80  A    between atoms: _201  and  _203
REMARK   81  A    between atoms: _203  and  _204
REMARK   82  A    between atoms: _203  and  _206
REMARK   83  A    between atoms: _206  and  _207
REMARK   84  A    between atoms: _210  and  _212
REMARK   85  A    between atoms: _212  and  _213
REMARK   86  A    between atoms: _212  and  _215
REMARK   87  A    between atoms: _218  and  _220
REMARK   88  A    between atoms: _220  and  _221
REMARK   89  A    between atoms: _220  and  _223
REMARK   90  A    between atoms: _223  and  _224
REMARK   91  A    between atoms: _224  and  _225
REMARK   92  A    between atoms: _225  and  _226
REMARK   93  A    between atoms: _235  and  _237
REMARK   94  A    between atoms: _237  and  _238
REMARK   95  A    between atoms: _241  and  _243
REMARK   96  A    between atoms: _243  and  _244
REMARK   97  A    between atoms: _246  and  _248
REMARK   98  A    between atoms: _248  and  _249
REMARK   99  A    between atoms: _248  and  _251
REMARK  100  A    between atoms: _251  and  _252
REMARK  101  A    between atoms: _257  and  _259
REMARK  102  A    between atoms: _259  and  _260
REMARK  103  A    between atoms: _259  and  _262
REMARK  104  A    between atoms: _262  and  _263
REMARK  105  A    between atoms: _263  and  _264
REMARK  106  A    between atoms: _264  and  _265
REMARK  107  A    between atoms: _274  and  _276
REMARK  108  A    between atoms: _276  and  _277
REMARK  109  A    between atoms: _276  and  _279
REMARK  110  A    between atoms: _279  and  _280
REMARK  111  A    between atoms: _283  and  _285
REMARK  112  A    between atoms: _285  and  _286
REMARK  113  A    between atoms: _285  and  _288
REMARK  114  A    between atoms: _288  and  _289
REMARK  115  A    between atoms: _291  and  _293
REMARK  116  A    between atoms: _293  and  _294
REMARK  117  A    between atoms: _293  and  _296
REMARK  118  A    between atoms: _296  and  _297
REMARK  119  A    between atoms: _297  and  _408
REMARK  120  A    between atoms: _298  and  _300
REMARK  121  A    between atoms: _300  and  _301
REMARK  122  A    between atoms: _300  and  _303
REMARK  123  A    between atoms: _303  and  _304
REMARK  124  A    between atoms: _304  and  _305
REMARK  125  A    between atoms: _310  and  _312
REMARK  126  A    between atoms: _312  and  _313
REMARK  127  A    between atoms: _315  and  _317
REMARK  128  A    between atoms: _317  and  _318
REMARK  129  A    between atoms: _317  and  _320
REMARK  130  A    between atoms: _320  and  _321
REMARK  131  A    between atoms: _324  and  _326
REMARK  132  A    between atoms: _326  and  _327
REMARK  133  A    between atoms: _326  and  _329
REMARK  134  A    between atoms: _329  and  _330
REMARK  135  A    between atoms: _332  and  _334
REMARK  136  A    between atoms: _334  and  _335
REMARK  137  A    between atoms: _337  and  _339
REMARK  138  A    between atoms: _339  and  _340
REMARK  139  A    between atoms: _342  and  _344
REMARK  140  A    between atoms: _344  and  _345
REMARK  141  A    between atoms: _344  and  _347
REMARK  142  A    between atoms: _350  and  _352
REMARK  143  A    between atoms: _352  and  _353
REMARK  144  A    between atoms: _352  and  _355
REMARK  145  A    between atoms: _358  and  _360
REMARK  146  A    between atoms: _360  and  _361
REMARK  147  A    between atoms: _360  and  _363
REMARK  148  A    between atoms: _363  and  _364
REMARK  149  A    between atoms: _366  and  _368
REMARK  150  A    between atoms: _368  and  _369
REMARK  151  A    between atoms: _368  and  _371
REMARK  152  A    between atoms: _371  and  _372
REMARK  153  A    between atoms: _382  and  _384
REMARK  154  A    between atoms: _384  and  _385
REMARK  155  A    between atoms: _387  and  _389
REMARK  156  A    between atoms: _389  and  _390
REMARK  157  A    between atoms: _389  and  _392
REMARK  158  A    between atoms: _392  and  _393
REMARK  159  A    between atoms: _393  and  _394
REMARK  160  A    between atoms: _397  and  _399
REMARK  161  A    between atoms: _399  and  _400
REMARK  162  A    between atoms: _402  and  _404
REMARK  163  A    between atoms: _404  and  _405
REMARK  164  A    between atoms: _404  and  _407
REMARK  165  A    between atoms: _407  and  _408
REMARK  166  A    between atoms: _409  and  _411
REMARK  167  A    between atoms: _411  and  _412
REMARK  168  A    between atoms: _415  and  _417
REMARK  169  A    between atoms: _417  and  _418
REMARK  170  A    between atoms: _417  and  _420
REMARK  171  A    between atoms: _420  and  _421
REMARK  172  A    between atoms: _421  and  _422
REMARK  173  A    between atoms: _427  and  _429
REMARK  174  A    between atoms: _429  and  _430
REMARK  175  A    between atoms: _429  and  _432
REMARK  176  A    between atoms: _432  and  _433
REMARK  177  A    between atoms: _438  and  _440
REMARK  178  A    between atoms: _440  and  _441
REMARK  179  A    between atoms: _440  and  _443
REMARK  180  A    between atoms: _443  and  _444
REMARK  181  A    between atoms: _444  and  _445
REMARK  182  A    between atoms: _445  and  _446
REMARK  183  A    between atoms: _456  and  _457
REMARK  184  A    between atoms: _462  and  _464
REMARK  185  A    between atoms: _464  and  _465
REMARK  186  A    between atoms: _467  and  _469
REMARK  187  A    between atoms: _469  and  _470
REMARK  188  A    between atoms: _469  and  _472
REMARK  189  A    between atoms: _472  and  _473
REMARK  190  A    between atoms: _476  and  _478
REMARK  191  A    between atoms: _478  and  _479
REMARK  192  A    between atoms: _478  and  _481
REMARK  193  A    between atoms: _481  and  _482
REMARK  194  A    between atoms: _487  and  _488
REMARK  195  A    between atoms: _490  and  _492
REMARK  196  A    between atoms: _492  and  _493
REMARK  197  A    between atoms: _496  and  _497
REMARK  198  A    between atoms: _502  and  _504
REMARK  199  A    between atoms: _504  and  _505
REMARK  200  A    between atoms: _504  and  _507
REMARK  201  A    between atoms: _507  and  _508
REMARK  202  A    between atoms: _511  and  _513
REMARK  203  A    between atoms: _513  and  _514
REMARK  204  A    between atoms: _513  and  _516
REMARK  205  A    between atoms: _519  and  _521
REMARK  206  A    between atoms: _521  and  _522
REMARK  207  A    between atoms: _521  and  _524
REMARK  208  A    between atoms: _524  and  _525
REMARK  209  A    between atoms: _533  and  _534
REMARK  210  A    between atoms: _533  and  _536
REMARK  211  A    between atoms: _536  and  _537
REMARK  212  A    between atoms: _542  and  _543
REMARK  213  A    between atoms: _545  and  _547
REMARK  214  A    between atoms: _547  and  _548
REMARK  215  A    between atoms: _547  and  _550
REMARK  216  A    between atoms: _550  and  _551
REMARK  217  A    between atoms: _554  and  _556
REMARK  218  A    between atoms: _556  and  _557
REMARK  219  A    between atoms: _556  and  _559
REMARK  220  A    between atoms: _559  and  _560
REMARK  221  A    between atoms: _560  and  _561
REMARK  222  A    between atoms: _566  and  _568
REMARK  223  A    between atoms: _568  and  _569
REMARK  224  A    between atoms: _568  and  _571
REMARK  225  A    between atoms: _571  and  _572
REMARK                            x       y       z     vdW  Elec       q    Type
REMARK                         _______ _______ _______ _____ _____    ______ ____
ROOT
ATOM      1  O   HOH     1      -9.231  46.401  -5.511  0.00  0.00    +0.000 OA
ENDROOT
TORSDOF 0
REMARK  Name = ../refined-set-2016/4a6l/4a6l_pocket.pdb
REMARK  225 active torsions:
REMARK  status: ('A' for Active; 'I' for Inactive)
REMARK    1  A    between atoms: _1  and  _5
REMARK    2  A    between atoms: _5  and  _6
REMARK    3  A    between atoms: _5  and  _8
REMARK    4  A    between atoms: _8  and  _9
REMARK    5  A    between atoms: _12  and  _14
REMARK    6  A    between atoms: _14  and  _15
REMARK    7  A    between atoms: _14  and  _17
REMARK    8  A    between atoms: _20  and  _22
REMARK    9  A    between atoms: _22  and  _23
REMARK   10  A    between atoms: _22  and  _25
REMARK   11  A    between atoms: _25  and  _26
REMARK   12  A    between atoms: _31  and  _33
REMARK   13  A    between atoms: _33  and  _34
REMARK   14  A    between atoms: _37  and  _39
REMARK   15  A    between atoms: _39  and  _40
REMARK   16  A    between atoms: _39  and  _42
REMARK   17  A    between atoms: _42  and  _43
REMARK   18  A    between atoms: _43  and  _44
REMARK   19  A    between atoms: _49  and  _51
REMARK   20  A    between atoms: _51  and  _52
REMARK   21  A    between atoms: _51  and  _54
REMARK   22  A    between atoms: _57  and  _59
REMARK   23  A    between atoms: _59  and  _60
REMARK   24  A    between atoms: _59  and  _62
REMARK   25  A    between atoms: _62  and  _63
REMARK   26  A    between atoms: _66  and  _68
REMARK   27  A    between atoms: _68  and  _69
REMARK   28  A    between atoms: _68  and  _71
REMARK   29  A    between atoms: _71  and  _72
REMARK   30  A    between atoms: _77  and  _79
REMARK   31  A    between atoms: _79  and  _80
REMARK   32  A    between atoms: _79  and  _82
REMARK   33  A    between atoms: _82  and  _83
REMARK   34  A    between atoms: _86  and  _88
REMARK   35  A    between atoms: _88  and  _89
REMARK   36  A    between atoms: _88  and  _91
REMARK   37  A    between atoms: _91  and  _92
REMARK   38  A    between atoms: _95  and  _97
REMARK   39  A    between atoms: _97  and  _98
REMARK   40  A    between atoms: _97  and  _100
REMARK   41  A    between atoms: _100  and  _101
REMARK   42  A    between atoms: _101  and  _102
REMARK   43  A    between atoms: _102  and  _103
REMARK   44  A    between atoms: _103  and  _104
REMARK   45  A    between atoms: _108  and  _110
REMARK   46  A    between atoms: _110  and  _111
REMARK   47  A    between atoms: _110  and  _113
REMARK   48  A    between atoms: _113  and  _114
REMARK   49  A    between atoms: _119  and  _120
REMARK   50  A    between atoms: _122  and  _124
REMARK   51  A    between atoms: _124  and  _125
REMARK   52  A    between atoms: _124  and  _127
REMARK   53  A    between atoms: _127  and  _128
REMARK   54  A    between atoms: _133  and  _135
REMARK   55  A    between atoms: _135  and  _136
REMARK   56  A    between atoms: _135  and  _138
REMARK   57  A    between atoms: _138  and  _139
REMARK   58  A    between atoms: _142  and  _144
REMARK   59  A    between atoms: _144  and  _145
REMARK   60  A    between atoms: _147  and  _149
REMARK   61  A    between atoms: _149  and  _150
REMARK   62  A    between atoms: _153  and  _155
REMARK   63  A    between atoms: _155  and  _156
REMARK   64  A    between atoms: _155  and  _158
REMARK   65  A    between atoms: _158  and  _159
REMARK   66  A    between atoms: _164  and  _165
REMARK   67  A    between atoms: _167  and  _169
REMARK   68  A    between atoms: _169  and  _170
REMARK   69  A    between atoms: _169  and  _172
REMARK   70  A    between atoms: _172  and  _173
REMARK   71  A    between atoms: _176  and  _178
REMARK   72  A    between atoms: _178  and  _179
REMARK   73  A    between atoms: _178  and  _181
REMARK   74  A    between atoms: _184  and  _186
REMARK   75  A    between atoms: _186  and  _187
REMARK   76  A    between atoms: _186  and  _189
REMARK   77  A    between atoms: _189  and  _190
REMARK   78  A    between atoms: _190  and  _191
REMARK   79  A    between atoms: _191  and  _192
REMARK   80  A    between atoms: _201  and  _203
REMARK   81  A    between atoms: _203  and  _204
REMARK   82  A    between atoms: _203  and  _206
REMARK   83  A    between atoms: _206  and  _207
REMARK   84  A    between atoms: _210  and  _212
REMARK   85  A    between atoms: _212  and  _213
REMARK   86  A    between atoms: _212  and  _215
REMARK   87  A    between atoms: _218  and  _220
REMARK   88  A    between atoms: _220  and  _221
REMARK   89  A    between atoms: _220  and  _223
REMARK   90  A    between atoms: _223  and  _224
REMARK   91  A    between atoms: _224  and  _225
REMARK   92  A    between atoms: _225  and  _226
REMARK   93  A    between atoms: _235  and  _237
REMARK   94  A    between atoms: _237  and  _238
REMARK   95  A    between atoms: _241  and  _243
REMARK   96  A    between atoms: _243  and  _244
REMARK   97  A    between atoms: _246  and  _248
REMARK   98  A    between atoms: _248  and  _249
REMARK   99  A    between atoms: _248  and  _251
REMARK  100  A    between atoms: _251  and  _252
REMARK  101  A    between atoms: _257  and  _259
REMARK  102  A    between atoms: _259  and  _260
REMARK  103  A    between atoms: _259  and  _262
REMARK  104  A    between atoms: _262  and  _263
REMARK  105  A    between atoms: _263  and  _264
REMARK  106  A    between atoms: _264  and  _265
REMARK  107  A    between atoms: _274  and  _276
REMARK  108  A    between atoms: _276  and  _277
REMARK  109  A    between atoms: _276  and  _279
REMARK  110  A    between atoms: _279  and  _280
REMARK  111  A    between atoms: _283  and  _285
REMARK  112  A    between atoms: _285  and  _286
REMARK  113  A    between atoms: _285  and  _288
REMARK  114  A    between atoms: _288  and  _289
REMARK  115  A    between atoms: _291  and  _293
REMARK  116  A    between atoms: _293  and  _294
REMARK  117  A    between atoms: _293  and  _296
REMARK  118  A    between atoms: _296  and  _297
REMARK  119  A    between atoms: _297  and  _408
REMARK  120  A    between atoms: _298  and  _300
REMARK  121  A    between atoms: _300  and  _301
REMARK  122  A    between atoms: _300  and  _303
REMARK  123  A    between atoms: _303  and  _304
REMARK  124  A    between atoms: _304  and  _305
REMARK  125  A    between atoms: _310  and  _312
REMARK  126  A    between atoms: _312  and  _313
REMARK  127  A    between atoms: _315  and  _317
REMARK  128  A    between atoms: _317  and  _318
REMARK  129  A    between atoms: _317  and  _320
REMARK  130  A    between atoms: _320  and  _321
REMARK  131  A    between atoms: _324  and  _326
REMARK  132  A    between atoms: _326  and  _327
REMARK  133  A    between atoms: _326  and  _329
REMARK  134  A    between atoms: _329  and  _330
REMARK  135  A    between atoms: _332  and  _334
REMARK  136  A    between atoms: _334  and  _335
REMARK  137  A    between atoms: _337  and  _339
REMARK  138  A    between atoms: _339  and  _340
REMARK  139  A    between atoms: _342  and  _344
REMARK  140  A    between atoms: _344  and  _345
REMARK  141  A    between atoms: _344  and  _347
REMARK  142  A    between atoms: _350  and  _352
REMARK  143  A    between atoms: _352  and  _353
REMARK  144  A    between atoms: _352  and  _355
REMARK  145  A    between atoms: _358  and  _360
REMARK  146  A    between atoms: _360  and  _361
REMARK  147  A    between atoms: _360  and  _363
REMARK  148  A    between atoms: _363  and  _364
REMARK  149  A    between atoms: _366  and  _368
REMARK  150  A    between atoms: _368  and  _369
REMARK  151  A    between atoms: _368  and  _371
REMARK  152  A    between atoms: _371  and  _372
REMARK  153  A    between atoms: _382  and  _384
REMARK  154  A    between atoms: _384  and  _385
REMARK  155  A    between atoms: _387  and  _389
REMARK  156  A    between atoms: _389  and  _390
REMARK  157  A    between atoms: _389  and  _392
REMARK  158  A    between atoms: _392  and  _393
REMARK  159  A    between atoms: _393  and  _394
REMARK  160  A    between atoms: _397  and  _399
REMARK  161  A    between atoms: _399  and  _400
REMARK  162  A    between atoms: _402  and  _404
REMARK  163  A    between atoms: _404  and  _405
REMARK  164  A    between atoms: _404  and  _407
REMARK  165  A    between atoms: _407  and  _408
REMARK  166  A    between atoms: _409  and  _411
REMARK  167  A    between atoms: _411  and  _412
REMARK  168  A    between atoms: _415  and  _417
REMARK  169  A    between atoms: _417  and  _418
REMARK  170  A    between atoms: _417  and  _420
REMARK  171  A    between atoms: _420  and  _421
REMARK  172  A    between atoms: _421  and  _422
REMARK  173  A    between atoms: _427  and  _429
REMARK  174  A    between atoms: _429  and  _430
REMARK  175  A    between atoms: _429  and  _432
REMARK  176  A    between atoms: _432  and  _433
REMARK  177  A    between atoms: _438  and  _440
REMARK  178  A    between atoms: _440  and  _441
REMARK  179  A    between atoms: _440  and  _443
REMARK  180  A    between atoms: _443  and  _444
REMARK  181  A    between atoms: _444  and  _445
REMARK  182  A    between atoms: _445  and  _446
REMARK  183  A    between atoms: _456  and  _457
REMARK  184  A    between atoms: _462  and  _464
REMARK  185  A    between atoms: _464  and  _465
REMARK  186  A    between atoms: _467  and  _469
REMARK  187  A    between atoms: _469  and  _470
REMARK  188  A    between atoms: _469  and  _472
REMARK  189  A    between atoms: _472  and  _473
REMARK  190  A    between atoms: _476  and  _478
REMARK  191  A    between atoms: _478  and  _479
REMARK  192  A    between atoms: _478  and  _481
REMARK  193  A    between atoms: _481  and  _482
REMARK  194  A    between atoms: _487  and  _488
REMARK  195  A    between atoms: _490  and  _492
REMARK  196  A    between atoms: _492  and  _493
REMARK  197  A    between atoms: _496  and  _497
REMARK  198  A    between atoms: _502  and  _504
REMARK  199  A    between atoms: _504  and  _505
REMARK  200  A    between atoms: _504  and  _507
REMARK  201  A    between atoms: _507  and  _508
REMARK  202  A    between atoms: _511  and  _513
REMARK  203  A    between atoms: _513  and  _514
REMARK  204  A    between atoms: _513  and  _516
REMARK  205  A    between atoms: _519  and  _521
REMARK  206  A    between atoms: _521  and  _522
REMARK  207  A    between atoms: _521  and  _524
REMARK  208  A    between atoms: _524  and  _525
REMARK  209  A    between atoms: _533  and  _534
REMARK  210  A    between atoms: _533  and  _536
REMARK  211  A    between atoms: _536  and  _537
REMARK  212  A    between atoms: _542  and  _543
REMARK  213  A    between atoms: _545  and  _547
REMARK  214  A    between atoms: _547  and  _548
REMARK  215  A    between atoms: _547  and  _550
REMARK  216  A    between atoms: _550  and  _551
REMARK  217  A    between atoms: _554  and  _556
REMARK  218  A    between atoms: _556  and  _557
REMARK  219  A    between atoms: _556  and  _559
REMARK  220  A    between atoms: _559  and  _560
REMARK  221  A    between atoms: _560  and  _561
REMARK  222  A    between atoms: _566  and  _568
REMARK  223  A    between atoms: _568  and  _569
REMARK  224  A    between atoms: _568  and  _571
REMARK  225  A    between atoms: _571  and  _572
REMARK                            x       y       z     vdW  Elec       q    Type
REMARK                         _______ _______ _______ _____ _____    ______ ____
ROOT
ATOM      1  O   HOH     1     -17.875  47.817  -3.886  0.00  0.00    +0.000 OA
ENDROOT
TORSDOF 0
REMARK  Name = ../refined-set-2016/4a6l/4a6l_pocket.pdb
REMARK  225 active torsions:
REMARK  status: ('A' for Active; 'I' for Inactive)
REMARK    1  A    between atoms: _1  and  _5
REMARK    2  A    between atoms: _5  and  _6
REMARK    3  A    between atoms: _5  and  _8
REMARK    4  A    between atoms: _8  and  _9
REMARK    5  A    between atoms: _12  and  _14
REMARK    6  A    between atoms: _14  and  _15
REMARK    7  A    between atoms: _14  and  _17
REMARK    8  A    between atoms: _20  and  _22
REMARK    9  A    between atoms: _22  and  _23
REMARK   10  A    between atoms: _22  and  _25
REMARK   11  A    between atoms: _25  and  _26
REMARK   12  A    between atoms: _31  and  _33
REMARK   13  A    between atoms: _33  and  _34
REMARK   14  A    between atoms: _37  and  _39
REMARK   15  A    between atoms: _39  and  _40
REMARK   16  A    between atoms: _39  and  _42
REMARK   17  A    between atoms: _42  and  _43
REMARK   18  A    between atoms: _43  and  _44
REMARK   19  A    between atoms: _49  and  _51
REMARK   20  A    between atoms: _51  and  _52
REMARK   21  A    between atoms: _51  and  _54
REMARK   22  A    between atoms: _57  and  _59
REMARK   23  A    between atoms: _59  and  _60
REMARK   24  A    between atoms: _59  and  _62
REMARK   25  A    between atoms: _62  and  _63
REMARK   26  A    between atoms: _66  and  _68
REMARK   27  A    between atoms: _68  and  _69
REMARK   28  A    between atoms: _68  and  _71
REMARK   29  A    between atoms: _71  and  _72
REMARK   30  A    between atoms: _77  and  _79
REMARK   31  A    between atoms: _79  and  _80
REMARK   32  A    between atoms: _79  and  _82
REMARK   33  A    between atoms: _82  and  _83
REMARK   34  A    between atoms: _86  and  _88
REMARK   35  A    between atoms: _88  and  _89
REMARK   36  A    between atoms: _88  and  _91
REMARK   37  A    between atoms: _91  and  _92
REMARK   38  A    between atoms: _95  and  _97
REMARK   39  A    between atoms: _97  and  _98
REMARK   40  A    between atoms: _97  and  _100
REMARK   41  A    between atoms: _100  and  _101
REMARK   42  A    between atoms: _101  and  _102
REMARK   43  A    between atoms: _102  and  _103
REMARK   44  A    between atoms: _103  and  _104
REMARK   45  A    between atoms: _108  and  _110
REMARK   46  A    between atoms: _110  and  _111
REMARK   47  A    between atoms: _110  and  _113
REMARK   48  A    between atoms: _113  and  _114
REMARK   49  A    between atoms: _119  and  _120
REMARK   50  A    between atoms: _122  and  _124
REMARK   51  A    between atoms: _124  and  _125
REMARK   52  A    between atoms: _124  and  _127
REMARK   53  A    between atoms: _127  and  _128
REMARK   54  A    between atoms: _133  and  _135
REMARK   55  A    between atoms: _135  and  _136
REMARK   56  A    between atoms: _135  and  _138
REMARK   57  A    between atoms: _138  and  _139
REMARK   58  A    between atoms: _142  and  _144
REMARK   59  A    between atoms: _144  and  _145
REMARK   60  A    between atoms: _147  and  _149
REMARK   61  A    between atoms: _149  and  _150
REMARK   62  A    between atoms: _153  and  _155
REMARK   63  A    between atoms: _155  and  _156
REMARK   64  A    between atoms: _155  and  _158
REMARK   65  A    between atoms: _158  and  _159
REMARK   66  A    between atoms: _164  and  _165
REMARK   67  A    between atoms: _167  and  _169
REMARK   68  A    between atoms: _169  and  _170
REMARK   69  A    between atoms: _169  and  _172
REMARK   70  A    between atoms: _172  and  _173
REMARK   71  A    between atoms: _176  and  _178
REMARK   72  A    between atoms: _178  and  _179
REMARK   73  A    between atoms: _178  and  _181
REMARK   74  A    between atoms: _184  and  _186
REMARK   75  A    between atoms: _186  and  _187
REMARK   76  A    between atoms: _186  and  _189
REMARK   77  A    between atoms: _189  and  _190
REMARK   78  A    between atoms: _190  and  _191
REMARK   79  A    between atoms: _191  and  _192
REMARK   80  A    between atoms: _201  and  _203
REMARK   81  A    between atoms: _203  and  _204
REMARK   82  A    between atoms: _203  and  _206
REMARK   83  A    between atoms: _206  and  _207
REMARK   84  A    between atoms: _210  and  _212
REMARK   85  A    between atoms: _212  and  _213
REMARK   86  A    between atoms: _212  and  _215
REMARK   87  A    between atoms: _218  and  _220
REMARK   88  A    between atoms: _220  and  _221
REMARK   89  A    between atoms: _220  and  _223
REMARK   90  A    between atoms: _223  and  _224
REMARK   91  A    between atoms: _224  and  _225
REMARK   92  A    between atoms: _225  and  _226
REMARK   93  A    between atoms: _235  and  _237
REMARK   94  A    between atoms: _237  and  _238
REMARK   95  A    between atoms: _241  and  _243
REMARK   96  A    between atoms: _243  and  _244
REMARK   97  A    between atoms: _246  and  _248
REMARK   98  A    between atoms: _248  and  _249
REMARK   99  A    between atoms: _248  and  _251
REMARK  100  A    between atoms: _251  and  _252
REMARK  101  A    between atoms: _257  and  _259
REMARK  102  A    between atoms: _259  and  _260
REMARK  103  A    between atoms: _259  and  _262
REMARK  104  A    between atoms: _262  and  _263
REMARK  105  A    between atoms: _263  and  _264
REMARK  106  A    between atoms: _264  and  _265
REMARK  107  A    between atoms: _274  and  _276
REMARK  108  A    between atoms: _276  and  _277
REMARK  109  A    between atoms: _276  and  _279
REMARK  110  A    between atoms: _279  and  _280
REMARK  111  A    between atoms: _283  and  _285
REMARK  112  A    between atoms: _285  and  _286
REMARK  113  A    between atoms: _285  and  _288
REMARK  114  A    between atoms: _288  and  _289
REMARK  115  A    between atoms: _291  and  _293
REMARK  116  A    between atoms: _293  and  _294
REMARK  117  A    between atoms: _293  and  _296
REMARK  118  A    between atoms: _296  and  _297
REMARK  119  A    between atoms: _297  and  _408
REMARK  120  A    between atoms: _298  and  _300
REMARK  121  A    between atoms: _300  and  _301
REMARK  122  A    between atoms: _300  and  _303
REMARK  123  A    between atoms: _303  and  _304
REMARK  124  A    between atoms: _304  and  _305
REMARK  125  A    between atoms: _310  and  _312
REMARK  126  A    between atoms: _312  and  _313
REMARK  127  A    between atoms: _315  and  _317
REMARK  128  A    between atoms: _317  and  _318
REMARK  129  A    between atoms: _317  and  _320
REMARK  130  A    between atoms: _320  and  _321
REMARK  131  A    between atoms: _324  and  _326
REMARK  132  A    between atoms: _326  and  _327
REMARK  133  A    between atoms: _326  and  _329
REMARK  134  A    between atoms: _329  and  _330
REMARK  135  A    between atoms: _332  and  _334
REMARK  136  A    between atoms: _334  and  _335
REMARK  137  A    between atoms: _337  and  _339
REMARK  138  A    between atoms: _339  and  _340
REMARK  139  A    between atoms: _342  and  _344
REMARK  140  A    between atoms: _344  and  _345
REMARK  141  A    between atoms: _344  and  _347
REMARK  142  A    between atoms: _350  and  _352
REMARK  143  A    between atoms: _352  and  _353
REMARK  144  A    between atoms: _352  and  _355
REMARK  145  A    between atoms: _358  and  _360
REMARK  146  A    between atoms: _360  and  _361
REMARK  147  A    between atoms: _360  and  _363
REMARK  148  A    between atoms: _363  and  _364
REMARK  149  A    between atoms: _366  and  _368
REMARK  150  A    between atoms: _368  and  _369
REMARK  151  A    between atoms: _368  and  _371
REMARK  152  A    between atoms: _371  and  _372
REMARK  153  A    between atoms: _382  and  _384
REMARK  154  A    between atoms: _384  and  _385
REMARK  155  A    between atoms: _387  and  _389
REMARK  156  A    between atoms: _389  and  _390
REMARK  157  A    between atoms: _389  and  _392
REMARK  158  A    between atoms: _392  and  _393
REMARK  159  A    between atoms: _393  and  _394
REMARK  160  A    between atoms: _397  and  _399
REMARK  161  A    between atoms: _399  and  _400
REMARK  162  A    between atoms: _402  and  _404
REMARK  163  A    between atoms: _404  and  _405
REMARK  164  A    between atoms: _404  and  _407
REMARK  165  A    between atoms: _407  and  _408
REMARK  166  A    between atoms: _409  and  _411
REMARK  167  A    between atoms: _411  and  _412
REMARK  168  A    between atoms: _415  and  _417
REMARK  169  A    between atoms: _417  and  _418
REMARK  170  A    between atoms: _417  and  _420
REMARK  171  A    between atoms: _420  and  _421
REMARK  172  A    between atoms: _421  and  _422
REMARK  173  A    between atoms: _427  and  _429
REMARK  174  A    between atoms: _429  and  _430
REMARK  175  A    between atoms: _429  and  _432
REMARK  176  A    between atoms: _432  and  _433
REMARK  177  A    between atoms: _438  and  _440
REMARK  178  A    between atoms: _440  and  _441
REMARK  179  A    between atoms: _440  and  _443
REMARK  180  A    between atoms: _443  and  _444
REMARK  181  A    between atoms: _444  and  _445
REMARK  182  A    between atoms: _445  and  _446
REMARK  183  A    between atoms: _456  and  _457
REMARK  184  A    between atoms: _462  and  _464
REMARK  185  A    between atoms: _464  and  _465
REMARK  186  A    between atoms: _467  and  _469
REMARK  187  A    between atoms: _469  and  _470
REMARK  188  A    between atoms: _469  and  _472
REMARK  189  A    between atoms: _472  and  _473
REMARK  190  A    between atoms: _476  and  _478
REMARK  191  A    between atoms: _478  and  _479
REMARK  192  A    between atoms: _478  and  _481
REMARK  193  A    between atoms: _481  and  _482
REMARK  194  A    between atoms: _487  and  _488
REMARK  195  A    between atoms: _490  and  _492
REMARK  196  A    between atoms: _492  and  _493
REMARK  197  A    between atoms: _496  and  _497
REMARK  198  A    between atoms: _502  and  _504
REMARK  199  A    between atoms: _504  and  _505
REMARK  200  A    between atoms: _504  and  _507
REMARK  201  A    between atoms: _507  and  _508
REMARK  202  A    between atoms: _511  and  _513
REMARK  203  A    between atoms: _513  and  _514
REMARK  204  A    between atoms: _513  and  _516
REMARK  205  A    between atoms: _519  and  _521
REMARK  206  A    between atoms: _521  and  _522
REMARK  207  A    between atoms: _521  and  _524
REMARK  208  A    between atoms: _524  and  _525
REMARK  209  A    between atoms: _533  and  _534
REMARK  210  A    between atoms: _533  and  _536
REMARK  211  A    between atoms: _536  and  _537
REMARK  212  A    between atoms: _542  and  _543
REMARK  213  A    between atoms: _545  and  _547
REMARK  214  A    between atoms: _547  and  _548
REMARK  215  A    between atoms: _547  and  _550
REMARK  216  A    between atoms: _550  and  _551
REMARK  217  A    between atoms: _554  and  _556
REMARK  218  A    between atoms: _556  and  _557
REMARK  219  A    between atoms: _556  and  _559
REMARK  220  A    between atoms: _559  and  _560
REMARK  221  A    between atoms: _560  and  _561
REMARK  222  A    between atoms: _566  and  _568
REMARK  223  A    between atoms: _568  and  _569
REMARK  224  A    between atoms: _568  and  _571
REMARK  225  A    between atoms: _571  and  _572
REMARK                            x       y       z     vdW  Elec       q    Type
REMARK                         _______ _______ _______ _____ _____    ______ ____
ROOT
ATOM      1  O   HOH     1     -10.759  47.032  -2.359  0.00  0.00    +0.000 OA
ENDROOT
TORSDOF 0
