REMARK  Name = ../refined-set-2016/4qlk/4qlk_pocket.pdb
REMARK  284 active torsions:
REMARK  status: ('A' for Active; 'I' for Inactive)
REMARK    1  A    between atoms: _1  and  _3
REMARK    2  A    between atoms: _3  and  _4
REMARK    3  A    between atoms: _3  and  _6
REMARK    4  A    between atoms: _9  and  _11
REMARK    5  A    between atoms: _11  and  _12
REMARK    6  A    between atoms: _11  and  _14
REMARK    7  A    between atoms: _14  and  _15
REMARK    8  A    between atoms: _18  and  _20
REMARK    9  A    between atoms: _20  and  _21
REMARK   10  A    between atoms: _20  and  _23
REMARK   11  A    between atoms: _23  and  _24
REMARK   12  A    between atoms: _26  and  _28
REMARK   13  A    between atoms: _28  and  _29
REMARK   14  A    between atoms: _28  and  _31
REMARK   15  A    between atoms: _31  and  _32
REMARK   16  A    between atoms: _32  and  _33
REMARK   17  A    between atoms: _38  and  _40
REMARK   18  A    between atoms: _40  and  _41
REMARK   19  A    between atoms: _40  and  _43
REMARK   20  A    between atoms: _43  and  _44
REMARK   21  A    between atoms: _44  and  _45
REMARK   22  A    between atoms: _45  and  _46
REMARK   23  A    between atoms: _55  and  _57
REMARK   24  A    between atoms: _57  and  _58
REMARK   25  A    between atoms: _57  and  _60
REMARK   26  A    between atoms: _60  and  _61
REMARK   27  A    between atoms: _66  and  _68
REMARK   28  A    between atoms: _68  and  _69
REMARK   29  A    between atoms: _68  and  _71
REMARK   30  A    between atoms: _71  and  _72
REMARK   31  A    between atoms: _77  and  _78
REMARK   32  A    between atoms: _80  and  _82
REMARK   33  A    between atoms: _82  and  _83
REMARK   34  A    between atoms: _82  and  _85
REMARK   35  A    between atoms: _85  and  _86
REMARK   36  A    between atoms: _91  and  _93
REMARK   37  A    between atoms: _93  and  _94
REMARK   38  A    between atoms: _93  and  _96
REMARK   39  A    between atoms: _96  and  _97
REMARK   40  A    between atoms: _97  and  _98
REMARK   41  A    between atoms: _103  and  _105
REMARK   42  A    between atoms: _105  and  _106
REMARK   43  A    between atoms: _105  and  _108
REMARK   44  A    between atoms: _108  and  _109
REMARK   45  A    between atoms: _109  and  _110
REMARK   46  A    between atoms: _110  and  _111
REMARK   47  A    between atoms: _120  and  _122
REMARK   48  A    between atoms: _122  and  _123
REMARK   49  A    between atoms: _122  and  _125
REMARK   50  A    between atoms: _125  and  _126
REMARK   51  A    between atoms: _129  and  _131
REMARK   52  A    between atoms: _131  and  _132
REMARK   53  A    between atoms: _131  and  _134
REMARK   54  A    between atoms: _134  and  _135
REMARK   55  A    between atoms: _138  and  _140
REMARK   56  A    between atoms: _140  and  _141
REMARK   57  A    between atoms: _140  and  _143
REMARK   58  A    between atoms: _143  and  _144
REMARK   59  A    between atoms: _147  and  _149
REMARK   60  A    between atoms: _149  and  _150
REMARK   61  A    between atoms: _149  and  _152
REMARK   62  A    between atoms: _152  and  _153
REMARK   63  A    between atoms: _156  and  _158
REMARK   64  A    between atoms: _158  and  _159
REMARK   65  A    between atoms: _158  and  _161
REMARK   66  A    between atoms: _161  and  _162
REMARK   67  A    between atoms: _162  and  _163
REMARK   68  A    between atoms: _168  and  _170
REMARK   69  A    between atoms: _170  and  _171
REMARK   70  A    between atoms: _170  and  _173
REMARK   71  A    between atoms: _173  and  _174
REMARK   72  A    between atoms: _177  and  _179
REMARK   73  A    between atoms: _179  and  _180
REMARK   74  A    between atoms: _179  and  _182
REMARK   75  A    between atoms: _182  and  _183
REMARK   76  A    between atoms: _188  and  _190
REMARK   77  A    between atoms: _190  and  _191
REMARK   78  A    between atoms: _190  and  _193
REMARK   79  A    between atoms: _196  and  _198
REMARK   80  A    between atoms: _198  and  _199
REMARK   81  A    between atoms: _198  and  _201
REMARK   82  A    between atoms: _201  and  _202
REMARK   83  A    between atoms: _205  and  _207
REMARK   84  A    between atoms: _207  and  _208
REMARK   85  A    between atoms: _207  and  _210
REMARK   86  A    between atoms: _210  and  _211
REMARK   87  A    between atoms: _214  and  _216
REMARK   88  A    between atoms: _216  and  _217
REMARK   89  A    between atoms: _216  and  _219
REMARK   90  A    between atoms: _219  and  _220
REMARK   91  A    between atoms: _226  and  _228
REMARK   92  A    between atoms: _228  and  _229
REMARK   93  A    between atoms: _228  and  _231
REMARK   94  A    between atoms: _231  and  _232
REMARK   95  A    between atoms: _237  and  _239
REMARK   96  A    between atoms: _239  and  _240
REMARK   97  A    between atoms: _239  and  _242
REMARK   98  A    between atoms: _242  and  _243
REMARK   99  A    between atoms: _253  and  _255
REMARK  100  A    between atoms: _255  and  _256
REMARK  101  A    between atoms: _255  and  _258
REMARK  102  A    between atoms: _258  and  _259
REMARK  103  A    between atoms: _264  and  _265
REMARK  104  A    between atoms: _267  and  _269
REMARK  105  A    between atoms: _269  and  _270
REMARK  106  A    between atoms: _273  and  _275
REMARK  107  A    between atoms: _275  and  _276
REMARK  108  A    between atoms: _275  and  _278
REMARK  109  A    between atoms: _278  and  _279
REMARK  110  A    between atoms: _285  and  _287
REMARK  111  A    between atoms: _287  and  _288
REMARK  112  A    between atoms: _287  and  _290
REMARK  113  A    between atoms: _290  and  _291
REMARK  114  A    between atoms: _296  and  _298
REMARK  115  A    between atoms: _298  and  _299
REMARK  116  A    between atoms: _298  and  _301
REMARK  117  A    between atoms: _301  and  _302
REMARK  118  A    between atoms: _307  and  _309
REMARK  119  A    between atoms: _309  and  _310
REMARK  120  A    between atoms: _309  and  _312
REMARK  121  A    between atoms: _312  and  _313
REMARK  122  A    between atoms: _313  and  _314
REMARK  123  A    between atoms: _319  and  _321
REMARK  124  A    between atoms: _321  and  _322
REMARK  125  A    between atoms: _321  and  _324
REMARK  126  A    between atoms: _324  and  _325
REMARK  127  A    between atoms: _330  and  _331
REMARK  128  A    between atoms: _333  and  _335
REMARK  129  A    between atoms: _335  and  _336
REMARK  130  A    between atoms: _335  and  _338
REMARK  131  A    between atoms: _338  and  _339
REMARK  132  A    between atoms: _342  and  _344
REMARK  133  A    between atoms: _344  and  _345
REMARK  134  A    between atoms: _348  and  _350
REMARK  135  A    between atoms: _350  and  _351
REMARK  136  A    between atoms: _350  and  _353
REMARK  137  A    between atoms: _353  and  _354
REMARK  138  A    between atoms: _356  and  _358
REMARK  139  A    between atoms: _358  and  _359
REMARK  140  A    between atoms: _358  and  _361
REMARK  141  A    between atoms: _361  and  _362
REMARK  142  A    between atoms: _367  and  _368
REMARK  143  A    between atoms: _370  and  _372
REMARK  144  A    between atoms: _372  and  _373
REMARK  145  A    between atoms: _372  and  _375
REMARK  146  A    between atoms: _375  and  _376
REMARK  147  A    between atoms: _376  and  _377
REMARK  148  A    between atoms: _379  and  _381
REMARK  149  A    between atoms: _381  and  _382
REMARK  150  A    between atoms: _381  and  _384
REMARK  151  A    between atoms: _384  and  _385
REMARK  152  A    between atoms: _385  and  _386
REMARK  153  A    between atoms: _386  and  _387
REMARK  154  A    between atoms: _387  and  _388
REMARK  155  A    between atoms: _392  and  _394
REMARK  156  A    between atoms: _394  and  _395
REMARK  157  A    between atoms: _394  and  _397
REMARK  158  A    between atoms: _397  and  _398
REMARK  159  A    between atoms: _400  and  _402
REMARK  160  A    between atoms: _402  and  _403
REMARK  161  A    between atoms: _402  and  _405
REMARK  162  A    between atoms: _405  and  _406
REMARK  163  A    between atoms: _411  and  _412
REMARK  164  A    between atoms: _414  and  _416
REMARK  165  A    between atoms: _416  and  _417
REMARK  166  A    between atoms: _416  and  _419
REMARK  167  A    between atoms: _419  and  _420
REMARK  168  A    between atoms: _422  and  _424
REMARK  169  A    between atoms: _424  and  _425
REMARK  170  A    between atoms: _428  and  _430
REMARK  171  A    between atoms: _430  and  _431
REMARK  172  A    between atoms: _430  and  _433
REMARK  173  A    between atoms: _433  and  _434
REMARK  174  A    between atoms: _437  and  _439
REMARK  175  A    between atoms: _439  and  _440
REMARK  176  A    between atoms: _439  and  _442
REMARK  177  A    between atoms: _442  and  _443
REMARK  178  A    between atoms: _453  and  _455
REMARK  179  A    between atoms: _455  and  _456
REMARK  180  A    between atoms: _455  and  _458
REMARK  181  A    between atoms: _458  and  _459
REMARK  182  A    between atoms: _459  and  _460
REMARK  183  A    between atoms: _465  and  _467
REMARK  184  A    between atoms: _467  and  _468
REMARK  185  A    between atoms: _467  and  _470
REMARK  186  A    between atoms: _473  and  _475
REMARK  187  A    between atoms: _475  and  _476
REMARK  188  A    between atoms: _475  and  _478
REMARK  189  A    between atoms: _478  and  _479
REMARK  190  A    between atoms: _482  and  _484
REMARK  191  A    between atoms: _484  and  _485
REMARK  192  A    between atoms: _488  and  _490
REMARK  193  A    between atoms: _490  and  _491
REMARK  194  A    between atoms: _490  and  _493
REMARK  195  A    between atoms: _496  and  _498
REMARK  196  A    between atoms: _498  and  _499
REMARK  197  A    between atoms: _498  and  _501
REMARK  198  A    between atoms: _501  and  _502
REMARK  199  A    between atoms: _508  and  _510
REMARK  200  A    between atoms: _510  and  _511
REMARK  201  A    between atoms: _510  and  _513
REMARK  202  A    between atoms: _513  and  _514
REMARK  203  A    between atoms: _516  and  _518
REMARK  204  A    between atoms: _518  and  _519
REMARK  205  A    between atoms: _518  and  _521
REMARK  206  A    between atoms: _521  and  _522
REMARK  207  A    between atoms: _527  and  _529
REMARK  208  A    between atoms: _529  and  _530
REMARK  209  A    between atoms: _529  and  _532
REMARK  210  A    between atoms: _532  and  _533
REMARK  211  A    between atoms: _543  and  _545
REMARK  212  A    between atoms: _545  and  _546
REMARK  213  A    between atoms: _545  and  _548
REMARK  214  A    between atoms: _548  and  _549
REMARK  215  A    between atoms: _552  and  _554
REMARK  216  A    between atoms: _554  and  _555
REMARK  217  A    between atoms: _554  and  _557
REMARK  218  A    between atoms: _557  and  _558
REMARK  219  A    between atoms: _563  and  _564
REMARK  220  A    between atoms: _566  and  _568
REMARK  221  A    between atoms: _568  and  _569
REMARK  222  A    between atoms: _568  and  _571
REMARK  223  A    between atoms: _571  and  _572
REMARK  224  A    between atoms: _575  and  _577
REMARK  225  A    between atoms: _577  and  _578
REMARK  226  A    between atoms: _577  and  _580
REMARK  227  A    between atoms: _580  and  _581
REMARK  228  A    between atoms: _581  and  _582
REMARK  229  A    between atoms: _585  and  _587
REMARK  230  A    between atoms: _587  and  _588
REMARK  231  A    between atoms: _587  and  _590
REMARK  232  A    between atoms: _590  and  _591
REMARK  233  A    between atoms: _596  and  _598
REMARK  234  A    between atoms: _598  and  _599
REMARK  235  A    between atoms: _601  and  _603
REMARK  236  A    between atoms: _603  and  _604
REMARK  237  A    between atoms: _603  and  _606
REMARK  238  A    between atoms: _606  and  _607
REMARK  239  A    between atoms: _607  and  _608
REMARK  240  A    between atoms: _610  and  _612
REMARK  241  A    between atoms: _612  and  _613
REMARK  242  A    between atoms: _612  and  _615
REMARK  243  A    between atoms: _615  and  _616
REMARK  244  A    between atoms: _619  and  _621
REMARK  245  A    between atoms: _621  and  _622
REMARK  246  A    between atoms: _621  and  _624
REMARK  247  A    between atoms: _624  and  _625
REMARK  248  A    between atoms: _635  and  _637
REMARK  249  A    between atoms: _637  and  _638
REMARK  250  A    between atoms: _637  and  _640
REMARK  251  A    between atoms: _640  and  _641
REMARK  252  A    between atoms: _643  and  _645
REMARK  253  A    between atoms: _645  and  _646
REMARK  254  A    between atoms: _645  and  _648
REMARK  255  A    between atoms: _648  and  _649
REMARK  256  A    between atoms: _654  and  _656
REMARK  257  A    between atoms: _656  and  _657
REMARK  258  A    between atoms: _656  and  _659
REMARK  259  A    between atoms: _659  and  _660
REMARK  260  A    between atoms: _666  and  _668
REMARK  261  A    between atoms: _668  and  _669
REMARK  262  A    between atoms: _668  and  _671
REMARK  263  A    between atoms: _671  and  _672
REMARK  264  A    between atoms: _672  and  _673
REMARK  265  A    between atoms: _676  and  _678
REMARK  266  A    between atoms: _678  and  _679
REMARK  267  A    between atoms: _678  and  _681
REMARK  268  A    between atoms: _681  and  _682
REMARK  269  A    between atoms: _692  and  _694
REMARK  270  A    between atoms: _694  and  _695
REMARK  271  A    between atoms: _694  and  _697
REMARK  272  A    between atoms: _697  and  _698
REMARK  273  A    between atoms: _701  and  _703
REMARK  274  A    between atoms: _703  and  _704
REMARK  275  A    between atoms: _703  and  _706
REMARK  276  A    between atoms: _706  and  _707
REMARK  277  A    between atoms: _709  and  _711
REMARK  278  A    between atoms: _711  and  _712
REMARK  279  A    between atoms: _711  and  _714
REMARK  280  A    between atoms: _714  and  _715
REMARK  281  A    between atoms: _717  and  _719
REMARK  282  A    between atoms: _719  and  _720
REMARK  283  A    between atoms: _719  and  _722
REMARK  284  A    between atoms: _722  and  _723
REMARK                            x       y       z     vdW  Elec       q    Type
REMARK                         _______ _______ _______ _____ _____    ______ ____
ROOT
ATOM      1  CA  THR A   2       5.738  -7.922  38.945  0.00  0.00    +0.176 C 
ENDROOT
BRANCH   1   4
ATOM      2  C   VAL A   1       6.823  -9.019  40.855  0.00  0.00    +0.238 C 
ATOM      3  O   VAL A   1       7.283  -7.978  41.328  0.00  0.00    -0.274 OA
ATOM      4  N   THR A   2       6.208  -9.089  39.684  0.00  0.00    -0.295 N 
ATOM      5  H   THR A   2       6.051 -10.029  39.268  0.00  0.00    +0.150 HD
BRANCH   2   6
ATOM      6  CA  VAL A   1       7.005 -10.363  41.566  0.00  0.00    +0.145 C 
BRANCH   6   7
ATOM      7  CB  VAL A   1       5.784 -10.831  42.424  0.00  0.00    +0.025 C 
ATOM      8  CG2 VAL A   1       5.900 -10.426  43.868  0.00  0.00    +0.002 C 
ATOM      9  CG1 VAL A   1       4.432 -10.444  41.820  0.00  0.00    +0.002 C 
ENDBRANCH   6   7
BRANCH   6  10
ATOM     10  N   VAL A   1       8.270 -10.425  42.312  0.00  0.00    -0.238 NA
ATOM     11  H   VAL A   1       8.592  -9.599  42.856  0.00  0.00    +0.142 HD
ENDBRANCH   6  10
ENDBRANCH   2   6
ENDBRANCH   1   4
BRANCH   1  12
ATOM     12  C   THR A   2       4.356  -8.286  38.396  0.00  0.00    +0.243 C 
ATOM     13  O   THR A   2       3.901  -9.427  38.571  0.00  0.00    -0.273 OA
ATOM     14  N   SER A   3       3.689  -7.330  37.756  0.00  0.00    -0.296 N 
ATOM     15  H   SER A   3       4.009  -6.343  37.831  0.00  0.00    +0.150 HD
BRANCH  14  16
ATOM     16  CA  SER A   3       2.513  -7.648  36.949  0.00  0.00    +0.166 C 
BRANCH  16  17
ATOM     17  C   SER A   3       2.656  -6.940  35.608  0.00  0.00    +0.229 C 
ATOM     18  O   SER A   3       3.420  -5.981  35.491  0.00  0.00    -0.286 OA
ENDBRANCH  16  17
BRANCH  16  19
ATOM     19  CB  SER A   3       1.209  -7.259  37.642  0.00  0.00    +0.165 C 
BRANCH  19  20
ATOM     20  OG  SER A   3       0.948  -5.870  37.491  0.00  0.00    -0.380 OA
ATOM     21  H   SER A   3       1.689  -5.351  37.892  0.00  0.00    +0.211 HD
ENDBRANCH  19  20
ENDBRANCH  16  19
ENDBRANCH  14  16
ENDBRANCH   1  12
BRANCH   1  22
ATOM     22  CB  THR A   2       6.662  -7.557  37.770  0.00  0.00    +0.137 C 
ATOM     23  CG2 THR A   2       8.084  -7.249  38.245  0.00  0.00    +0.034 C 
BRANCH  22  24
ATOM     24  OG1 THR A   2       6.675  -8.628  36.814  0.00  0.00    -0.382 OA
ATOM     25  HG1 THR A   2       5.757  -8.778  36.476  0.00  0.00    +0.210 HD
ENDBRANCH  22  24
ENDBRANCH   1  22
TORSDOF 11
REMARK  Name = ../refined-set-2016/4qlk/4qlk_pocket.pdb
REMARK  284 active torsions:
REMARK  status: ('A' for Active; 'I' for Inactive)
REMARK    1  A    between atoms: _1  and  _3
REMARK    2  A    between atoms: _3  and  _4
REMARK    3  A    between atoms: _3  and  _6
REMARK    4  A    between atoms: _9  and  _11
REMARK    5  A    between atoms: _11  and  _12
REMARK    6  A    between atoms: _11  and  _14
REMARK    7  A    between atoms: _14  and  _15
REMARK    8  A    between atoms: _18  and  _20
REMARK    9  A    between atoms: _20  and  _21
REMARK   10  A    between atoms: _20  and  _23
REMARK   11  A    between atoms: _23  and  _24
REMARK   12  A    between atoms: _26  and  _28
REMARK   13  A    between atoms: _28  and  _29
REMARK   14  A    between atoms: _28  and  _31
REMARK   15  A    between atoms: _31  and  _32
REMARK   16  A    between atoms: _32  and  _33
REMARK   17  A    between atoms: _38  and  _40
REMARK   18  A    between atoms: _40  and  _41
REMARK   19  A    between atoms: _40  and  _43
REMARK   20  A    between atoms: _43  and  _44
REMARK   21  A    between atoms: _44  and  _45
REMARK   22  A    between atoms: _45  and  _46
REMARK   23  A    between atoms: _55  and  _57
REMARK   24  A    between atoms: _57  and  _58
REMARK   25  A    between atoms: _57  and  _60
REMARK   26  A    between atoms: _60  and  _61
REMARK   27  A    between atoms: _66  and  _68
REMARK   28  A    between atoms: _68  and  _69
REMARK   29  A    between atoms: _68  and  _71
REMARK   30  A    between atoms: _71  and  _72
REMARK   31  A    between atoms: _77  and  _78
REMARK   32  A    between atoms: _80  and  _82
REMARK   33  A    between atoms: _82  and  _83
REMARK   34  A    between atoms: _82  and  _85
REMARK   35  A    between atoms: _85  and  _86
REMARK   36  A    between atoms: _91  and  _93
REMARK   37  A    between atoms: _93  and  _94
REMARK   38  A    between atoms: _93  and  _96
REMARK   39  A    between atoms: _96  and  _97
REMARK   40  A    between atoms: _97  and  _98
REMARK   41  A    between atoms: _103  and  _105
REMARK   42  A    between atoms: _105  and  _106
REMARK   43  A    between atoms: _105  and  _108
REMARK   44  A    between atoms: _108  and  _109
REMARK   45  A    between atoms: _109  and  _110
REMARK   46  A    between atoms: _110  and  _111
REMARK   47  A    between atoms: _120  and  _122
REMARK   48  A    between atoms: _122  and  _123
REMARK   49  A    between atoms: _122  and  _125
REMARK   50  A    between atoms: _125  and  _126
REMARK   51  A    between atoms: _129  and  _131
REMARK   52  A    between atoms: _131  and  _132
REMARK   53  A    between atoms: _131  and  _134
REMARK   54  A    between atoms: _134  and  _135
REMARK   55  A    between atoms: _138  and  _140
REMARK   56  A    between atoms: _140  and  _141
REMARK   57  A    between atoms: _140  and  _143
REMARK   58  A    between atoms: _143  and  _144
REMARK   59  A    between atoms: _147  and  _149
REMARK   60  A    between atoms: _149  and  _150
REMARK   61  A    between atoms: _149  and  _152
REMARK   62  A    between atoms: _152  and  _153
REMARK   63  A    between atoms: _156  and  _158
REMARK   64  A    between atoms: _158  and  _159
REMARK   65  A    between atoms: _158  and  _161
REMARK   66  A    between atoms: _161  and  _162
REMARK   67  A    between atoms: _162  and  _163
REMARK   68  A    between atoms: _168  and  _170
REMARK   69  A    between atoms: _170  and  _171
REMARK   70  A    between atoms: _170  and  _173
REMARK   71  A    between atoms: _173  and  _174
REMARK   72  A    between atoms: _177  and  _179
REMARK   73  A    between atoms: _179  and  _180
REMARK   74  A    between atoms: _179  and  _182
REMARK   75  A    between atoms: _182  and  _183
REMARK   76  A    between atoms: _188  and  _190
REMARK   77  A    between atoms: _190  and  _191
REMARK   78  A    between atoms: _190  and  _193
REMARK   79  A    between atoms: _196  and  _198
REMARK   80  A    between atoms: _198  and  _199
REMARK   81  A    between atoms: _198  and  _201
REMARK   82  A    between atoms: _201  and  _202
REMARK   83  A    between atoms: _205  and  _207
REMARK   84  A    between atoms: _207  and  _208
REMARK   85  A    between atoms: _207  and  _210
REMARK   86  A    between atoms: _210  and  _211
REMARK   87  A    between atoms: _214  and  _216
REMARK   88  A    between atoms: _216  and  _217
REMARK   89  A    between atoms: _216  and  _219
REMARK   90  A    between atoms: _219  and  _220
REMARK   91  A    between atoms: _226  and  _228
REMARK   92  A    between atoms: _228  and  _229
REMARK   93  A    between atoms: _228  and  _231
REMARK   94  A    between atoms: _231  and  _232
REMARK   95  A    between atoms: _237  and  _239
REMARK   96  A    between atoms: _239  and  _240
REMARK   97  A    between atoms: _239  and  _242
REMARK   98  A    between atoms: _242  and  _243
REMARK   99  A    between atoms: _253  and  _255
REMARK  100  A    between atoms: _255  and  _256
REMARK  101  A    between atoms: _255  and  _258
REMARK  102  A    between atoms: _258  and  _259
REMARK  103  A    between atoms: _264  and  _265
REMARK  104  A    between atoms: _267  and  _269
REMARK  105  A    between atoms: _269  and  _270
REMARK  106  A    between atoms: _273  and  _275
REMARK  107  A    between atoms: _275  and  _276
REMARK  108  A    between atoms: _275  and  _278
REMARK  109  A    between atoms: _278  and  _279
REMARK  110  A    between atoms: _285  and  _287
REMARK  111  A    between atoms: _287  and  _288
REMARK  112  A    between atoms: _287  and  _290
REMARK  113  A    between atoms: _290  and  _291
REMARK  114  A    between atoms: _296  and  _298
REMARK  115  A    between atoms: _298  and  _299
REMARK  116  A    between atoms: _298  and  _301
REMARK  117  A    between atoms: _301  and  _302
REMARK  118  A    between atoms: _307  and  _309
REMARK  119  A    between atoms: _309  and  _310
REMARK  120  A    between atoms: _309  and  _312
REMARK  121  A    between atoms: _312  and  _313
REMARK  122  A    between atoms: _313  and  _314
REMARK  123  A    between atoms: _319  and  _321
REMARK  124  A    between atoms: _321  and  _322
REMARK  125  A    between atoms: _321  and  _324
REMARK  126  A    between atoms: _324  and  _325
REMARK  127  A    between atoms: _330  and  _331
REMARK  128  A    between atoms: _333  and  _335
REMARK  129  A    between atoms: _335  and  _336
REMARK  130  A    between atoms: _335  and  _338
REMARK  131  A    between atoms: _338  and  _339
REMARK  132  A    between atoms: _342  and  _344
REMARK  133  A    between atoms: _344  and  _345
REMARK  134  A    between atoms: _348  and  _350
REMARK  135  A    between atoms: _350  and  _351
REMARK  136  A    between atoms: _350  and  _353
REMARK  137  A    between atoms: _353  and  _354
REMARK  138  A    between atoms: _356  and  _358
REMARK  139  A    between atoms: _358  and  _359
REMARK  140  A    between atoms: _358  and  _361
REMARK  141  A    between atoms: _361  and  _362
REMARK  142  A    between atoms: _367  and  _368
REMARK  143  A    between atoms: _370  and  _372
REMARK  144  A    between atoms: _372  and  _373
REMARK  145  A    between atoms: _372  and  _375
REMARK  146  A    between atoms: _375  and  _376
REMARK  147  A    between atoms: _376  and  _377
REMARK  148  A    between atoms: _379  and  _381
REMARK  149  A    between atoms: _381  and  _382
REMARK  150  A    between atoms: _381  and  _384
REMARK  151  A    between atoms: _384  and  _385
REMARK  152  A    between atoms: _385  and  _386
REMARK  153  A    between atoms: _386  and  _387
REMARK  154  A    between atoms: _387  and  _388
REMARK  155  A    between atoms: _392  and  _394
REMARK  156  A    between atoms: _394  and  _395
REMARK  157  A    between atoms: _394  and  _397
REMARK  158  A    between atoms: _397  and  _398
REMARK  159  A    between atoms: _400  and  _402
REMARK  160  A    between atoms: _402  and  _403
REMARK  161  A    between atoms: _402  and  _405
REMARK  162  A    between atoms: _405  and  _406
REMARK  163  A    between atoms: _411  and  _412
REMARK  164  A    between atoms: _414  and  _416
REMARK  165  A    between atoms: _416  and  _417
REMARK  166  A    between atoms: _416  and  _419
REMARK  167  A    between atoms: _419  and  _420
REMARK  168  A    between atoms: _422  and  _424
REMARK  169  A    between atoms: _424  and  _425
REMARK  170  A    between atoms: _428  and  _430
REMARK  171  A    between atoms: _430  and  _431
REMARK  172  A    between atoms: _430  and  _433
REMARK  173  A    between atoms: _433  and  _434
REMARK  174  A    between atoms: _437  and  _439
REMARK  175  A    between atoms: _439  and  _440
REMARK  176  A    between atoms: _439  and  _442
REMARK  177  A    between atoms: _442  and  _443
REMARK  178  A    between atoms: _453  and  _455
REMARK  179  A    between atoms: _455  and  _456
REMARK  180  A    between atoms: _455  and  _458
REMARK  181  A    between atoms: _458  and  _459
REMARK  182  A    between atoms: _459  and  _460
REMARK  183  A    between atoms: _465  and  _467
REMARK  184  A    between atoms: _467  and  _468
REMARK  185  A    between atoms: _467  and  _470
REMARK  186  A    between atoms: _473  and  _475
REMARK  187  A    between atoms: _475  and  _476
REMARK  188  A    between atoms: _475  and  _478
REMARK  189  A    between atoms: _478  and  _479
REMARK  190  A    between atoms: _482  and  _484
REMARK  191  A    between atoms: _484  and  _485
REMARK  192  A    between atoms: _488  and  _490
REMARK  193  A    between atoms: _490  and  _491
REMARK  194  A    between atoms: _490  and  _493
REMARK  195  A    between atoms: _496  and  _498
REMARK  196  A    between atoms: _498  and  _499
REMARK  197  A    between atoms: _498  and  _501
REMARK  198  A    between atoms: _501  and  _502
REMARK  199  A    between atoms: _508  and  _510
REMARK  200  A    between atoms: _510  and  _511
REMARK  201  A    between atoms: _510  and  _513
REMARK  202  A    between atoms: _513  and  _514
REMARK  203  A    between atoms: _516  and  _518
REMARK  204  A    between atoms: _518  and  _519
REMARK  205  A    between atoms: _518  and  _521
REMARK  206  A    between atoms: _521  and  _522
REMARK  207  A    between atoms: _527  and  _529
REMARK  208  A    between atoms: _529  and  _530
REMARK  209  A    between atoms: _529  and  _532
REMARK  210  A    between atoms: _532  and  _533
REMARK  211  A    between atoms: _543  and  _545
REMARK  212  A    between atoms: _545  and  _546
REMARK  213  A    between atoms: _545  and  _548
REMARK  214  A    between atoms: _548  and  _549
REMARK  215  A    between atoms: _552  and  _554
REMARK  216  A    between atoms: _554  and  _555
REMARK  217  A    between atoms: _554  and  _557
REMARK  218  A    between atoms: _557  and  _558
REMARK  219  A    between atoms: _563  and  _564
REMARK  220  A    between atoms: _566  and  _568
REMARK  221  A    between atoms: _568  and  _569
REMARK  222  A    between atoms: _568  and  _571
REMARK  223  A    between atoms: _571  and  _572
REMARK  224  A    between atoms: _575  and  _577
REMARK  225  A    between atoms: _577  and  _578
REMARK  226  A    between atoms: _577  and  _580
REMARK  227  A    between atoms: _580  and  _581
REMARK  228  A    between atoms: _581  and  _582
REMARK  229  A    between atoms: _585  and  _587
REMARK  230  A    between atoms: _587  and  _588
REMARK  231  A    between atoms: _587  and  _590
REMARK  232  A    between atoms: _590  and  _591
REMARK  233  A    between atoms: _596  and  _598
REMARK  234  A    between atoms: _598  and  _599
REMARK  235  A    between atoms: _601  and  _603
REMARK  236  A    between atoms: _603  and  _604
REMARK  237  A    between atoms: _603  and  _606
REMARK  238  A    between atoms: _606  and  _607
REMARK  239  A    between atoms: _607  and  _608
REMARK  240  A    between atoms: _610  and  _612
REMARK  241  A    between atoms: _612  and  _613
REMARK  242  A    between atoms: _612  and  _615
REMARK  243  A    between atoms: _615  and  _616
REMARK  244  A    between atoms: _619  and  _621
REMARK  245  A    between atoms: _621  and  _622
REMARK  246  A    between atoms: _621  and  _624
REMARK  247  A    between atoms: _624  and  _625
REMARK  248  A    between atoms: _635  and  _637
REMARK  249  A    between atoms: _637  and  _638
REMARK  250  A    between atoms: _637  and  _640
REMARK  251  A    between atoms: _640  and  _641
REMARK  252  A    between atoms: _643  and  _645
REMARK  253  A    between atoms: _645  and  _646
REMARK  254  A    between atoms: _645  and  _648
REMARK  255  A    between atoms: _648  and  _649
REMARK  256  A    between atoms: _654  and  _656
REMARK  257  A    between atoms: _656  and  _657
REMARK  258  A    between atoms: _656  and  _659
REMARK  259  A    between atoms: _659  and  _660
REMARK  260  A    between atoms: _666  and  _668
REMARK  261  A    between atoms: _668  and  _669
REMARK  262  A    between atoms: _668  and  _671
REMARK  263  A    between atoms: _671  and  _672
REMARK  264  A    between atoms: _672  and  _673
REMARK  265  A    between atoms: _676  and  _678
REMARK  266  A    between atoms: _678  and  _679
REMARK  267  A    between atoms: _678  and  _681
REMARK  268  A    between atoms: _681  and  _682
REMARK  269  A    between atoms: _692  and  _694
REMARK  270  A    between atoms: _694  and  _695
REMARK  271  A    between atoms: _694  and  _697
REMARK  272  A    between atoms: _697  and  _698
REMARK  273  A    between atoms: _701  and  _703
REMARK  274  A    between atoms: _703  and  _704
REMARK  275  A    between atoms: _703  and  _706
REMARK  276  A    between atoms: _706  and  _707
REMARK  277  A    between atoms: _709  and  _711
REMARK  278  A    between atoms: _711  and  _712
REMARK  279  A    between atoms: _711  and  _714
REMARK  280  A    between atoms: _714  and  _715
REMARK  281  A    between atoms: _717  and  _719
REMARK  282  A    between atoms: _719  and  _720
REMARK  283  A    between atoms: _719  and  _722
REMARK  284  A    between atoms: _722  and  _723
REMARK                            x       y       z     vdW  Elec       q    Type
REMARK                         _______ _______ _______ _____ _____    ______ ____
ROOT
ATOM      1  CB  GLN A   1       2.742  -2.849  37.431  0.00  0.00    +0.035 C 
ENDROOT
BRANCH   1   2
ATOM      2  CA  GLN A   1       2.817  -2.347  36.005  0.00  0.00    +0.134 C 
BRANCH   2   3
ATOM      3  N   GLN A   1       1.950  -3.126  35.125  0.00  0.00    -0.239 NA
ATOM      4  H   GLN A   1       1.651  -4.081  35.409  0.00  0.00    +0.142 HD
ENDBRANCH   2   3
BRANCH   2   5
ATOM      5  C   GLN A   1       4.263  -2.246  35.537  0.00  0.00    +0.224 C 
ATOM      6  O   GLN A   1       4.954  -1.283  35.894  0.00  0.00    -0.287 OA
ENDBRANCH   2   5
ENDBRANCH   1   2
BRANCH   1   7
ATOM      7  CG  GLN A   1       1.332  -2.740  37.986  0.00  0.00    +0.087 C 
BRANCH   7   8
ATOM      8  CD  GLN A   1       1.244  -3.167  39.426  0.00  0.00    +0.219 C 
ATOM      9  NE2 GLN A   1       1.498  -2.241  40.347  0.00  0.00    -0.329 N 
ATOM     10 HE21 GLN A   1       1.448  -2.484  41.357  0.00  0.00    +0.145 HD
ATOM     11 HE22 GLN A   1       1.747  -1.274  40.057  0.00  0.00    +0.145 HD
ATOM     12  OE1 GLN A   1       0.946  -4.322  39.709  0.00  0.00    -0.275 OA
ENDBRANCH   7   8
ENDBRANCH   1   7
TORSDOF 5
REMARK  Name = ../refined-set-2016/4qlk/4qlk_pocket.pdb
REMARK  284 active torsions:
REMARK  status: ('A' for Active; 'I' for Inactive)
REMARK    1  A    between atoms: _1  and  _3
REMARK    2  A    between atoms: _3  and  _4
REMARK    3  A    between atoms: _3  and  _6
REMARK    4  A    between atoms: _9  and  _11
REMARK    5  A    between atoms: _11  and  _12
REMARK    6  A    between atoms: _11  and  _14
REMARK    7  A    between atoms: _14  and  _15
REMARK    8  A    between atoms: _18  and  _20
REMARK    9  A    between atoms: _20  and  _21
REMARK   10  A    between atoms: _20  and  _23
REMARK   11  A    between atoms: _23  and  _24
REMARK   12  A    between atoms: _26  and  _28
REMARK   13  A    between atoms: _28  and  _29
REMARK   14  A    between atoms: _28  and  _31
REMARK   15  A    between atoms: _31  and  _32
REMARK   16  A    between atoms: _32  and  _33
REMARK   17  A    between atoms: _38  and  _40
REMARK   18  A    between atoms: _40  and  _41
REMARK   19  A    between atoms: _40  and  _43
REMARK   20  A    between atoms: _43  and  _44
REMARK   21  A    between atoms: _44  and  _45
REMARK   22  A    between atoms: _45  and  _46
REMARK   23  A    between atoms: _55  and  _57
REMARK   24  A    between atoms: _57  and  _58
REMARK   25  A    between atoms: _57  and  _60
REMARK   26  A    between atoms: _60  and  _61
REMARK   27  A    between atoms: _66  and  _68
REMARK   28  A    between atoms: _68  and  _69
REMARK   29  A    between atoms: _68  and  _71
REMARK   30  A    between atoms: _71  and  _72
REMARK   31  A    between atoms: _77  and  _78
REMARK   32  A    between atoms: _80  and  _82
REMARK   33  A    between atoms: _82  and  _83
REMARK   34  A    between atoms: _82  and  _85
REMARK   35  A    between atoms: _85  and  _86
REMARK   36  A    between atoms: _91  and  _93
REMARK   37  A    between atoms: _93  and  _94
REMARK   38  A    between atoms: _93  and  _96
REMARK   39  A    between atoms: _96  and  _97
REMARK   40  A    between atoms: _97  and  _98
REMARK   41  A    between atoms: _103  and  _105
REMARK   42  A    between atoms: _105  and  _106
REMARK   43  A    between atoms: _105  and  _108
REMARK   44  A    between atoms: _108  and  _109
REMARK   45  A    between atoms: _109  and  _110
REMARK   46  A    between atoms: _110  and  _111
REMARK   47  A    between atoms: _120  and  _122
REMARK   48  A    between atoms: _122  and  _123
REMARK   49  A    between atoms: _122  and  _125
REMARK   50  A    between atoms: _125  and  _126
REMARK   51  A    between atoms: _129  and  _131
REMARK   52  A    between atoms: _131  and  _132
REMARK   53  A    between atoms: _131  and  _134
REMARK   54  A    between atoms: _134  and  _135
REMARK   55  A    between atoms: _138  and  _140
REMARK   56  A    between atoms: _140  and  _141
REMARK   57  A    between atoms: _140  and  _143
REMARK   58  A    between atoms: _143  and  _144
REMARK   59  A    between atoms: _147  and  _149
REMARK   60  A    between atoms: _149  and  _150
REMARK   61  A    between atoms: _149  and  _152
REMARK   62  A    between atoms: _152  and  _153
REMARK   63  A    between atoms: _156  and  _158
REMARK   64  A    between atoms: _158  and  _159
REMARK   65  A    between atoms: _158  and  _161
REMARK   66  A    between atoms: _161  and  _162
REMARK   67  A    between atoms: _162  and  _163
REMARK   68  A    between atoms: _168  and  _170
REMARK   69  A    between atoms: _170  and  _171
REMARK   70  A    between atoms: _170  and  _173
REMARK   71  A    between atoms: _173  and  _174
REMARK   72  A    between atoms: _177  and  _179
REMARK   73  A    between atoms: _179  and  _180
REMARK   74  A    between atoms: _179  and  _182
REMARK   75  A    between atoms: _182  and  _183
REMARK   76  A    between atoms: _188  and  _190
REMARK   77  A    between atoms: _190  and  _191
REMARK   78  A    between atoms: _190  and  _193
REMARK   79  A    between atoms: _196  and  _198
REMARK   80  A    between atoms: _198  and  _199
REMARK   81  A    between atoms: _198  and  _201
REMARK   82  A    between atoms: _201  and  _202
REMARK   83  A    between atoms: _205  and  _207
REMARK   84  A    between atoms: _207  and  _208
REMARK   85  A    between atoms: _207  and  _210
REMARK   86  A    between atoms: _210  and  _211
REMARK   87  A    between atoms: _214  and  _216
REMARK   88  A    between atoms: _216  and  _217
REMARK   89  A    between atoms: _216  and  _219
REMARK   90  A    between atoms: _219  and  _220
REMARK   91  A    between atoms: _226  and  _228
REMARK   92  A    between atoms: _228  and  _229
REMARK   93  A    between atoms: _228  and  _231
REMARK   94  A    between atoms: _231  and  _232
REMARK   95  A    between atoms: _237  and  _239
REMARK   96  A    between atoms: _239  and  _240
REMARK   97  A    between atoms: _239  and  _242
REMARK   98  A    between atoms: _242  and  _243
REMARK   99  A    between atoms: _253  and  _255
REMARK  100  A    between atoms: _255  and  _256
REMARK  101  A    between atoms: _255  and  _258
REMARK  102  A    between atoms: _258  and  _259
REMARK  103  A    between atoms: _264  and  _265
REMARK  104  A    between atoms: _267  and  _269
REMARK  105  A    between atoms: _269  and  _270
REMARK  106  A    between atoms: _273  and  _275
REMARK  107  A    between atoms: _275  and  _276
REMARK  108  A    between atoms: _275  and  _278
REMARK  109  A    between atoms: _278  and  _279
REMARK  110  A    between atoms: _285  and  _287
REMARK  111  A    between atoms: _287  and  _288
REMARK  112  A    between atoms: _287  and  _290
REMARK  113  A    between atoms: _290  and  _291
REMARK  114  A    between atoms: _296  and  _298
REMARK  115  A    between atoms: _298  and  _299
REMARK  116  A    between atoms: _298  and  _301
REMARK  117  A    between atoms: _301  and  _302
REMARK  118  A    between atoms: _307  and  _309
REMARK  119  A    between atoms: _309  and  _310
REMARK  120  A    between atoms: _309  and  _312
REMARK  121  A    between atoms: _312  and  _313
REMARK  122  A    between atoms: _313  and  _314
REMARK  123  A    between atoms: _319  and  _321
REMARK  124  A    between atoms: _321  and  _322
REMARK  125  A    between atoms: _321  and  _324
REMARK  126  A    between atoms: _324  and  _325
REMARK  127  A    between atoms: _330  and  _331
REMARK  128  A    between atoms: _333  and  _335
REMARK  129  A    between atoms: _335  and  _336
REMARK  130  A    between atoms: _335  and  _338
REMARK  131  A    between atoms: _338  and  _339
REMARK  132  A    between atoms: _342  and  _344
REMARK  133  A    between atoms: _344  and  _345
REMARK  134  A    between atoms: _348  and  _350
REMARK  135  A    between atoms: _350  and  _351
REMARK  136  A    between atoms: _350  and  _353
REMARK  137  A    between atoms: _353  and  _354
REMARK  138  A    between atoms: _356  and  _358
REMARK  139  A    between atoms: _358  and  _359
REMARK  140  A    between atoms: _358  and  _361
REMARK  141  A    between atoms: _361  and  _362
REMARK  142  A    between atoms: _367  and  _368
REMARK  143  A    between atoms: _370  and  _372
REMARK  144  A    between atoms: _372  and  _373
REMARK  145  A    between atoms: _372  and  _375
REMARK  146  A    between atoms: _375  and  _376
REMARK  147  A    between atoms: _376  and  _377
REMARK  148  A    between atoms: _379  and  _381
REMARK  149  A    between atoms: _381  and  _382
REMARK  150  A    between atoms: _381  and  _384
REMARK  151  A    between atoms: _384  and  _385
REMARK  152  A    between atoms: _385  and  _386
REMARK  153  A    between atoms: _386  and  _387
REMARK  154  A    between atoms: _387  and  _388
REMARK  155  A    between atoms: _392  and  _394
REMARK  156  A    between atoms: _394  and  _395
REMARK  157  A    between atoms: _394  and  _397
REMARK  158  A    between atoms: _397  and  _398
REMARK  159  A    between atoms: _400  and  _402
REMARK  160  A    between atoms: _402  and  _403
REMARK  161  A    between atoms: _402  and  _405
REMARK  162  A    between atoms: _405  and  _406
REMARK  163  A    between atoms: _411  and  _412
REMARK  164  A    between atoms: _414  and  _416
REMARK  165  A    between atoms: _416  and  _417
REMARK  166  A    between atoms: _416  and  _419
REMARK  167  A    between atoms: _419  and  _420
REMARK  168  A    between atoms: _422  and  _424
REMARK  169  A    between atoms: _424  and  _425
REMARK  170  A    between atoms: _428  and  _430
REMARK  171  A    between atoms: _430  and  _431
REMARK  172  A    between atoms: _430  and  _433
REMARK  173  A    between atoms: _433  and  _434
REMARK  174  A    between atoms: _437  and  _439
REMARK  175  A    between atoms: _439  and  _440
REMARK  176  A    between atoms: _439  and  _442
REMARK  177  A    between atoms: _442  and  _443
REMARK  178  A    between atoms: _453  and  _455
REMARK  179  A    between atoms: _455  and  _456
REMARK  180  A    between atoms: _455  and  _458
REMARK  181  A    between atoms: _458  and  _459
REMARK  182  A    between atoms: _459  and  _460
REMARK  183  A    between atoms: _465  and  _467
REMARK  184  A    between atoms: _467  and  _468
REMARK  185  A    between atoms: _467  and  _470
REMARK  186  A    between atoms: _473  and  _475
REMARK  187  A    between atoms: _475  and  _476
REMARK  188  A    between atoms: _475  and  _478
REMARK  189  A    between atoms: _478  and  _479
REMARK  190  A    between atoms: _482  and  _484
REMARK  191  A    between atoms: _484  and  _485
REMARK  192  A    between atoms: _488  and  _490
REMARK  193  A    between atoms: _490  and  _491
REMARK  194  A    between atoms: _490  and  _493
REMARK  195  A    between atoms: _496  and  _498
REMARK  196  A    between atoms: _498  and  _499
REMARK  197  A    between atoms: _498  and  _501
REMARK  198  A    between atoms: _501  and  _502
REMARK  199  A    between atoms: _508  and  _510
REMARK  200  A    between atoms: _510  and  _511
REMARK  201  A    between atoms: _510  and  _513
REMARK  202  A    between atoms: _513  and  _514
REMARK  203  A    between atoms: _516  and  _518
REMARK  204  A    between atoms: _518  and  _519
REMARK  205  A    between atoms: _518  and  _521
REMARK  206  A    between atoms: _521  and  _522
REMARK  207  A    between atoms: _527  and  _529
REMARK  208  A    between atoms: _529  and  _530
REMARK  209  A    between atoms: _529  and  _532
REMARK  210  A    between atoms: _532  and  _533
REMARK  211  A    between atoms: _543  and  _545
REMARK  212  A    between atoms: _545  and  _546
REMARK  213  A    between atoms: _545  and  _548
REMARK  214  A    between atoms: _548  and  _549
REMARK  215  A    between atoms: _552  and  _554
REMARK  216  A    between atoms: _554  and  _555
REMARK  217  A    between atoms: _554  and  _557
REMARK  218  A    between atoms: _557  and  _558
REMARK  219  A    between atoms: _563  and  _564
REMARK  220  A    between atoms: _566  and  _568
REMARK  221  A    between atoms: _568  and  _569
REMARK  222  A    between atoms: _568  and  _571
REMARK  223  A    between atoms: _571  and  _572
REMARK  224  A    between atoms: _575  and  _577
REMARK  225  A    between atoms: _577  and  _578
REMARK  226  A    between atoms: _577  and  _580
REMARK  227  A    between atoms: _580  and  _581
REMARK  228  A    between atoms: _581  and  _582
REMARK  229  A    between atoms: _585  and  _587
REMARK  230  A    between atoms: _587  and  _588
REMARK  231  A    between atoms: _587  and  _590
REMARK  232  A    between atoms: _590  and  _591
REMARK  233  A    between atoms: _596  and  _598
REMARK  234  A    between atoms: _598  and  _599
REMARK  235  A    between atoms: _601  and  _603
REMARK  236  A    between atoms: _603  and  _604
REMARK  237  A    between atoms: _603  and  _606
REMARK  238  A    between atoms: _606  and  _607
REMARK  239  A    between atoms: _607  and  _608
REMARK  240  A    between atoms: _610  and  _612
REMARK  241  A    between atoms: _612  and  _613
REMARK  242  A    between atoms: _612  and  _615
REMARK  243  A    between atoms: _615  and  _616
REMARK  244  A    between atoms: _619  and  _621
REMARK  245  A    between atoms: _621  and  _622
REMARK  246  A    between atoms: _621  and  _624
REMARK  247  A    between atoms: _624  and  _625
REMARK  248  A    between atoms: _635  and  _637
REMARK  249  A    between atoms: _637  and  _638
REMARK  250  A    between atoms: _637  and  _640
REMARK  251  A    between atoms: _640  and  _641
REMARK  252  A    between atoms: _643  and  _645
REMARK  253  A    between atoms: _645  and  _646
REMARK  254  A    between atoms: _645  and  _648
REMARK  255  A    between atoms: _648  and  _649
REMARK  256  A    between atoms: _654  and  _656
REMARK  257  A    between atoms: _656  and  _657
REMARK  258  A    between atoms: _656  and  _659
REMARK  259  A    between atoms: _659  and  _660
REMARK  260  A    between atoms: _666  and  _668
REMARK  261  A    between atoms: _668  and  _669
REMARK  262  A    between atoms: _668  and  _671
REMARK  263  A    between atoms: _671  and  _672
REMARK  264  A    between atoms: _672  and  _673
REMARK  265  A    between atoms: _676  and  _678
REMARK  266  A    between atoms: _678  and  _679
REMARK  267  A    between atoms: _678  and  _681
REMARK  268  A    between atoms: _681  and  _682
REMARK  269  A    between atoms: _692  and  _694
REMARK  270  A    between atoms: _694  and  _695
REMARK  271  A    between atoms: _694  and  _697
REMARK  272  A    between atoms: _697  and  _698
REMARK  273  A    between atoms: _701  and  _703
REMARK  274  A    between atoms: _703  and  _704
REMARK  275  A    between atoms: _703  and  _706
REMARK  276  A    between atoms: _706  and  _707
REMARK  277  A    between atoms: _709  and  _711
REMARK  278  A    between atoms: _711  and  _712
REMARK  279  A    between atoms: _711  and  _714
REMARK  280  A    between atoms: _714  and  _715
REMARK  281  A    between atoms: _717  and  _719
REMARK  282  A    between atoms: _719  and  _720
REMARK  283  A    between atoms: _719  and  _722
REMARK  284  A    between atoms: _722  and  _723
REMARK                            x       y       z     vdW  Elec       q    Type
REMARK                         _______ _______ _______ _____ _____    ______ ____
ROOT
ATOM      1  NE  ARG A   1       1.562 -13.540  41.560  0.00  0.00    -0.265 N 
ATOM      2  CZ  ARG A   1       0.932 -12.524  42.127  0.00  0.00    +0.342 C 
ATOM      3  NH2 ARG A   1       1.450 -11.896  43.166  0.00  0.00    -0.292 N 
ATOM      4 HH21 ARG A   1       0.941 -11.099  43.599  0.00  0.00    +0.255 HD
ATOM      5 HH22 ARG A   1       2.367 -12.198  43.552  0.00  0.00    +0.255 HD
ATOM      6  NH1 ARG A   1      -0.260 -12.156  41.671  0.00  0.00    -0.292 N 
ATOM      7 HH11 ARG A   1      -0.762 -11.358  42.111  0.00  0.00    +0.255 HD
ATOM      8 HH12 ARG A   1      -0.692 -12.665  40.874  0.00  0.00    +0.255 HD
ATOM      9  HE  ARG A   1       1.064 -14.037  40.794  0.00  0.00    +0.259 HD
ENDROOT
BRANCH   1  10
ATOM     10  CD  ARG A   1       2.895 -14.028  41.913  0.00  0.00    +0.174 C 
BRANCH  10  11
ATOM     11  CG  ARG A   1       3.729 -14.068  40.633  0.00  0.00    +0.045 C 
BRANCH  11  12
ATOM     12  CB  ARG A   1       5.231 -14.220  40.852  0.00  0.00    +0.029 C 
BRANCH  12  13
ATOM     13  CA  ARG A   1       6.025 -14.324  39.541  0.00  0.00    +0.133 C 
BRANCH  13  14
ATOM     14  N   ARG A   1       7.462 -14.404  39.779  0.00  0.00    -0.239 NA
ATOM     15  H   ARG A   1       7.883 -13.842  40.546  0.00  0.00    +0.142 HD
ENDBRANCH  13  14
BRANCH  13  16
ATOM     16  C   ARG A   1       5.749 -13.114  38.638  0.00  0.00    +0.224 C 
ATOM     17  O   ARG A   1       6.116 -11.979  38.957  0.00  0.00    -0.287 OA
ENDBRANCH  13  16
ENDBRANCH  12  13
ENDBRANCH  11  12
ENDBRANCH  10  11
ENDBRANCH   1  10
TORSDOF 6
REMARK  Name = ../refined-set-2016/4qlk/4qlk_pocket.pdb
REMARK  284 active torsions:
REMARK  status: ('A' for Active; 'I' for Inactive)
REMARK    1  A    between atoms: _1  and  _3
REMARK    2  A    between atoms: _3  and  _4
REMARK    3  A    between atoms: _3  and  _6
REMARK    4  A    between atoms: _9  and  _11
REMARK    5  A    between atoms: _11  and  _12
REMARK    6  A    between atoms: _11  and  _14
REMARK    7  A    between atoms: _14  and  _15
REMARK    8  A    between atoms: _18  and  _20
REMARK    9  A    between atoms: _20  and  _21
REMARK   10  A    between atoms: _20  and  _23
REMARK   11  A    between atoms: _23  and  _24
REMARK   12  A    between atoms: _26  and  _28
REMARK   13  A    between atoms: _28  and  _29
REMARK   14  A    between atoms: _28  and  _31
REMARK   15  A    between atoms: _31  and  _32
REMARK   16  A    between atoms: _32  and  _33
REMARK   17  A    between atoms: _38  and  _40
REMARK   18  A    between atoms: _40  and  _41
REMARK   19  A    between atoms: _40  and  _43
REMARK   20  A    between atoms: _43  and  _44
REMARK   21  A    between atoms: _44  and  _45
REMARK   22  A    between atoms: _45  and  _46
REMARK   23  A    between atoms: _55  and  _57
REMARK   24  A    between atoms: _57  and  _58
REMARK   25  A    between atoms: _57  and  _60
REMARK   26  A    between atoms: _60  and  _61
REMARK   27  A    between atoms: _66  and  _68
REMARK   28  A    between atoms: _68  and  _69
REMARK   29  A    between atoms: _68  and  _71
REMARK   30  A    between atoms: _71  and  _72
REMARK   31  A    between atoms: _77  and  _78
REMARK   32  A    between atoms: _80  and  _82
REMARK   33  A    between atoms: _82  and  _83
REMARK   34  A    between atoms: _82  and  _85
REMARK   35  A    between atoms: _85  and  _86
REMARK   36  A    between atoms: _91  and  _93
REMARK   37  A    between atoms: _93  and  _94
REMARK   38  A    between atoms: _93  and  _96
REMARK   39  A    between atoms: _96  and  _97
REMARK   40  A    between atoms: _97  and  _98
REMARK   41  A    between atoms: _103  and  _105
REMARK   42  A    between atoms: _105  and  _106
REMARK   43  A    between atoms: _105  and  _108
REMARK   44  A    between atoms: _108  and  _109
REMARK   45  A    between atoms: _109  and  _110
REMARK   46  A    between atoms: _110  and  _111
REMARK   47  A    between atoms: _120  and  _122
REMARK   48  A    between atoms: _122  and  _123
REMARK   49  A    between atoms: _122  and  _125
REMARK   50  A    between atoms: _125  and  _126
REMARK   51  A    between atoms: _129  and  _131
REMARK   52  A    between atoms: _131  and  _132
REMARK   53  A    between atoms: _131  and  _134
REMARK   54  A    between atoms: _134  and  _135
REMARK   55  A    between atoms: _138  and  _140
REMARK   56  A    between atoms: _140  and  _141
REMARK   57  A    between atoms: _140  and  _143
REMARK   58  A    between atoms: _143  and  _144
REMARK   59  A    between atoms: _147  and  _149
REMARK   60  A    between atoms: _149  and  _150
REMARK   61  A    between atoms: _149  and  _152
REMARK   62  A    between atoms: _152  and  _153
REMARK   63  A    between atoms: _156  and  _158
REMARK   64  A    between atoms: _158  and  _159
REMARK   65  A    between atoms: _158  and  _161
REMARK   66  A    between atoms: _161  and  _162
REMARK   67  A    between atoms: _162  and  _163
REMARK   68  A    between atoms: _168  and  _170
REMARK   69  A    between atoms: _170  and  _171
REMARK   70  A    between atoms: _170  and  _173
REMARK   71  A    between atoms: _173  and  _174
REMARK   72  A    between atoms: _177  and  _179
REMARK   73  A    between atoms: _179  and  _180
REMARK   74  A    between atoms: _179  and  _182
REMARK   75  A    between atoms: _182  and  _183
REMARK   76  A    between atoms: _188  and  _190
REMARK   77  A    between atoms: _190  and  _191
REMARK   78  A    between atoms: _190  and  _193
REMARK   79  A    between atoms: _196  and  _198
REMARK   80  A    between atoms: _198  and  _199
REMARK   81  A    between atoms: _198  and  _201
REMARK   82  A    between atoms: _201  and  _202
REMARK   83  A    between atoms: _205  and  _207
REMARK   84  A    between atoms: _207  and  _208
REMARK   85  A    between atoms: _207  and  _210
REMARK   86  A    between atoms: _210  and  _211
REMARK   87  A    between atoms: _214  and  _216
REMARK   88  A    between atoms: _216  and  _217
REMARK   89  A    between atoms: _216  and  _219
REMARK   90  A    between atoms: _219  and  _220
REMARK   91  A    between atoms: _226  and  _228
REMARK   92  A    between atoms: _228  and  _229
REMARK   93  A    between atoms: _228  and  _231
REMARK   94  A    between atoms: _231  and  _232
REMARK   95  A    between atoms: _237  and  _239
REMARK   96  A    between atoms: _239  and  _240
REMARK   97  A    between atoms: _239  and  _242
REMARK   98  A    between atoms: _242  and  _243
REMARK   99  A    between atoms: _253  and  _255
REMARK  100  A    between atoms: _255  and  _256
REMARK  101  A    between atoms: _255  and  _258
REMARK  102  A    between atoms: _258  and  _259
REMARK  103  A    between atoms: _264  and  _265
REMARK  104  A    between atoms: _267  and  _269
REMARK  105  A    between atoms: _269  and  _270
REMARK  106  A    between atoms: _273  and  _275
REMARK  107  A    between atoms: _275  and  _276
REMARK  108  A    between atoms: _275  and  _278
REMARK  109  A    between atoms: _278  and  _279
REMARK  110  A    between atoms: _285  and  _287
REMARK  111  A    between atoms: _287  and  _288
REMARK  112  A    between atoms: _287  and  _290
REMARK  113  A    between atoms: _290  and  _291
REMARK  114  A    between atoms: _296  and  _298
REMARK  115  A    between atoms: _298  and  _299
REMARK  116  A    between atoms: _298  and  _301
REMARK  117  A    between atoms: _301  and  _302
REMARK  118  A    between atoms: _307  and  _309
REMARK  119  A    between atoms: _309  and  _310
REMARK  120  A    between atoms: _309  and  _312
REMARK  121  A    between atoms: _312  and  _313
REMARK  122  A    between atoms: _313  and  _314
REMARK  123  A    between atoms: _319  and  _321
REMARK  124  A    between atoms: _321  and  _322
REMARK  125  A    between atoms: _321  and  _324
REMARK  126  A    between atoms: _324  and  _325
REMARK  127  A    between atoms: _330  and  _331
REMARK  128  A    between atoms: _333  and  _335
REMARK  129  A    between atoms: _335  and  _336
REMARK  130  A    between atoms: _335  and  _338
REMARK  131  A    between atoms: _338  and  _339
REMARK  132  A    between atoms: _342  and  _344
REMARK  133  A    between atoms: _344  and  _345
REMARK  134  A    between atoms: _348  and  _350
REMARK  135  A    between atoms: _350  and  _351
REMARK  136  A    between atoms: _350  and  _353
REMARK  137  A    between atoms: _353  and  _354
REMARK  138  A    between atoms: _356  and  _358
REMARK  139  A    between atoms: _358  and  _359
REMARK  140  A    between atoms: _358  and  _361
REMARK  141  A    between atoms: _361  and  _362
REMARK  142  A    between atoms: _367  and  _368
REMARK  143  A    between atoms: _370  and  _372
REMARK  144  A    between atoms: _372  and  _373
REMARK  145  A    between atoms: _372  and  _375
REMARK  146  A    between atoms: _375  and  _376
REMARK  147  A    between atoms: _376  and  _377
REMARK  148  A    between atoms: _379  and  _381
REMARK  149  A    between atoms: _381  and  _382
REMARK  150  A    between atoms: _381  and  _384
REMARK  151  A    between atoms: _384  and  _385
REMARK  152  A    between atoms: _385  and  _386
REMARK  153  A    between atoms: _386  and  _387
REMARK  154  A    between atoms: _387  and  _388
REMARK  155  A    between atoms: _392  and  _394
REMARK  156  A    between atoms: _394  and  _395
REMARK  157  A    between atoms: _394  and  _397
REMARK  158  A    between atoms: _397  and  _398
REMARK  159  A    between atoms: _400  and  _402
REMARK  160  A    between atoms: _402  and  _403
REMARK  161  A    between atoms: _402  and  _405
REMARK  162  A    between atoms: _405  and  _406
REMARK  163  A    between atoms: _411  and  _412
REMARK  164  A    between atoms: _414  and  _416
REMARK  165  A    between atoms: _416  and  _417
REMARK  166  A    between atoms: _416  and  _419
REMARK  167  A    between atoms: _419  and  _420
REMARK  168  A    between atoms: _422  and  _424
REMARK  169  A    between atoms: _424  and  _425
REMARK  170  A    between atoms: _428  and  _430
REMARK  171  A    between atoms: _430  and  _431
REMARK  172  A    between atoms: _430  and  _433
REMARK  173  A    between atoms: _433  and  _434
REMARK  174  A    between atoms: _437  and  _439
REMARK  175  A    between atoms: _439  and  _440
REMARK  176  A    between atoms: _439  and  _442
REMARK  177  A    between atoms: _442  and  _443
REMARK  178  A    between atoms: _453  and  _455
REMARK  179  A    between atoms: _455  and  _456
REMARK  180  A    between atoms: _455  and  _458
REMARK  181  A    between atoms: _458  and  _459
REMARK  182  A    between atoms: _459  and  _460
REMARK  183  A    between atoms: _465  and  _467
REMARK  184  A    between atoms: _467  and  _468
REMARK  185  A    between atoms: _467  and  _470
REMARK  186  A    between atoms: _473  and  _475
REMARK  187  A    between atoms: _475  and  _476
REMARK  188  A    between atoms: _475  and  _478
REMARK  189  A    between atoms: _478  and  _479
REMARK  190  A    between atoms: _482  and  _484
REMARK  191  A    between atoms: _484  and  _485
REMARK  192  A    between atoms: _488  and  _490
REMARK  193  A    between atoms: _490  and  _491
REMARK  194  A    between atoms: _490  and  _493
REMARK  195  A    between atoms: _496  and  _498
REMARK  196  A    between atoms: _498  and  _499
REMARK  197  A    between atoms: _498  and  _501
REMARK  198  A    between atoms: _501  and  _502
REMARK  199  A    between atoms: _508  and  _510
REMARK  200  A    between atoms: _510  and  _511
REMARK  201  A    between atoms: _510  and  _513
REMARK  202  A    between atoms: _513  and  _514
REMARK  203  A    between atoms: _516  and  _518
REMARK  204  A    between atoms: _518  and  _519
REMARK  205  A    between atoms: _518  and  _521
REMARK  206  A    between atoms: _521  and  _522
REMARK  207  A    between atoms: _527  and  _529
REMARK  208  A    between atoms: _529  and  _530
REMARK  209  A    between atoms: _529  and  _532
REMARK  210  A    between atoms: _532  and  _533
REMARK  211  A    between atoms: _543  and  _545
REMARK  212  A    between atoms: _545  and  _546
REMARK  213  A    between atoms: _545  and  _548
REMARK  214  A    between atoms: _548  and  _549
REMARK  215  A    between atoms: _552  and  _554
REMARK  216  A    between atoms: _554  and  _555
REMARK  217  A    between atoms: _554  and  _557
REMARK  218  A    between atoms: _557  and  _558
REMARK  219  A    between atoms: _563  and  _564
REMARK  220  A    between atoms: _566  and  _568
REMARK  221  A    between atoms: _568  and  _569
REMARK  222  A    between atoms: _568  and  _571
REMARK  223  A    between atoms: _571  and  _572
REMARK  224  A    between atoms: _575  and  _577
REMARK  225  A    between atoms: _577  and  _578
REMARK  226  A    between atoms: _577  and  _580
REMARK  227  A    between atoms: _580  and  _581
REMARK  228  A    between atoms: _581  and  _582
REMARK  229  A    between atoms: _585  and  _587
REMARK  230  A    between atoms: _587  and  _588
REMARK  231  A    between atoms: _587  and  _590
REMARK  232  A    between atoms: _590  and  _591
REMARK  233  A    between atoms: _596  and  _598
REMARK  234  A    between atoms: _598  and  _599
REMARK  235  A    between atoms: _601  and  _603
REMARK  236  A    between atoms: _603  and  _604
REMARK  237  A    between atoms: _603  and  _606
REMARK  238  A    between atoms: _606  and  _607
REMARK  239  A    between atoms: _607  and  _608
REMARK  240  A    between atoms: _610  and  _612
REMARK  241  A    between atoms: _612  and  _613
REMARK  242  A    between atoms: _612  and  _615
REMARK  243  A    between atoms: _615  and  _616
REMARK  244  A    between atoms: _619  and  _621
REMARK  245  A    between atoms: _621  and  _622
REMARK  246  A    between atoms: _621  and  _624
REMARK  247  A    between atoms: _624  and  _625
REMARK  248  A    between atoms: _635  and  _637
REMARK  249  A    between atoms: _637  and  _638
REMARK  250  A    between atoms: _637  and  _640
REMARK  251  A    between atoms: _640  and  _641
REMARK  252  A    between atoms: _643  and  _645
REMARK  253  A    between atoms: _645  and  _646
REMARK  254  A    between atoms: _645  and  _648
REMARK  255  A    between atoms: _648  and  _649
REMARK  256  A    between atoms: _654  and  _656
REMARK  257  A    between atoms: _656  and  _657
REMARK  258  A    between atoms: _656  and  _659
REMARK  259  A    between atoms: _659  and  _660
REMARK  260  A    between atoms: _666  and  _668
REMARK  261  A    between atoms: _668  and  _669
REMARK  262  A    between atoms: _668  and  _671
REMARK  263  A    between atoms: _671  and  _672
REMARK  264  A    between atoms: _672  and  _673
REMARK  265  A    between atoms: _676  and  _678
REMARK  266  A    between atoms: _678  and  _679
REMARK  267  A    between atoms: _678  and  _681
REMARK  268  A    between atoms: _681  and  _682
REMARK  269  A    between atoms: _692  and  _694
REMARK  270  A    between atoms: _694  and  _695
REMARK  271  A    between atoms: _694  and  _697
REMARK  272  A    between atoms: _697  and  _698
REMARK  273  A    between atoms: _701  and  _703
REMARK  274  A    between atoms: _703  and  _704
REMARK  275  A    between atoms: _703  and  _706
REMARK  276  A    between atoms: _706  and  _707
REMARK  277  A    between atoms: _709  and  _711
REMARK  278  A    between atoms: _711  and  _712
REMARK  279  A    between atoms: _711  and  _714
REMARK  280  A    between atoms: _714  and  _715
REMARK  281  A    between atoms: _717  and  _719
REMARK  282  A    between atoms: _719  and  _720
REMARK  283  A    between atoms: _719  and  _722
REMARK  284  A    between atoms: _722  and  _723
REMARK                            x       y       z     vdW  Elec       q    Type
REMARK                         _______ _______ _______ _____ _____    ______ ____
ROOT
ATOM      1  C   HIS A   1      -4.458  -7.627  36.838  0.00  0.00    +0.239 C 
ATOM      2  N   TYR A   2      -5.785  -7.572  36.984  0.00  0.00    -0.298 N 
ATOM      3  H   TYR A   2      -6.267  -8.462  37.225  0.00  0.00    +0.150 HD
ATOM      4  O   HIS A   1      -3.766  -6.690  36.456  0.00  0.00    -0.274 OA
ENDROOT
BRANCH   1   5
ATOM      5  CA  HIS A   1      -3.826  -8.989  37.152  0.00  0.00    +0.151 C 
BRANCH   5   6
ATOM      6  N   HIS A   1      -4.200  -9.944  36.118  0.00  0.00    -0.238 NA
ATOM      7  H   HIS A   1      -4.248  -9.614  35.133  0.00  0.00    +0.142 HD
ENDBRANCH   5   6
BRANCH   5   8
ATOM      8  CB  HIS A   1      -2.295  -8.896  37.271  0.00  0.00    +0.074 C 
BRANCH   8   9
ATOM      9  CG  HIS A   1      -1.811  -8.329  38.569  0.00  0.00    +0.082 A 
ATOM     10  ND1 HIS A   1      -0.938  -9.008  39.393  0.00  0.00    -0.227 NA
ATOM     11  CE1 HIS A   1      -0.661  -8.266  40.449  0.00  0.00    +0.199 A 
ATOM     12  NE2 HIS A   1      -1.330  -7.131  40.347  0.00  0.00    -0.221 NA
ATOM     13  CD2 HIS A   1      -2.052  -7.141  39.176  0.00  0.00    +0.115 A 
ENDBRANCH   8   9
ENDBRANCH   5   8
ENDBRANCH   1   5
BRANCH   2  14
ATOM     14  CA  TYR A   2      -6.644  -6.361  36.836  0.00  0.00    +0.141 C 
BRANCH  14  15
ATOM     15  C   TYR A   2      -6.921  -5.923  35.392  0.00  0.00    +0.227 C 
ATOM     16  O   TYR A   2      -7.794  -5.082  35.154  0.00  0.00    -0.286 OA
ENDBRANCH  14  15
BRANCH  14  17
ATOM     17  CB  TYR A   2      -6.073  -5.139  37.567  0.00  0.00    +0.054 C 
BRANCH  17  18
ATOM     18  CG  TYR A   2      -5.843  -5.263  39.055  0.00  0.00    -0.020 A 
ATOM     19  CD2 TYR A   2      -6.422  -6.285  39.816  0.00  0.00    -0.001 A 
ATOM     20  CE2 TYR A   2      -6.203  -6.362  41.191  0.00  0.00    +0.036 A 
ATOM     21  CZ  TYR A   2      -5.398  -5.408  41.811  0.00  0.00    +0.134 A 
ATOM     22  CE1 TYR A   2      -4.813  -4.397  41.072  0.00  0.00    +0.036 A 
ATOM     23  CD1 TYR A   2      -5.042  -4.328  39.706  0.00  0.00    -0.001 A 
BRANCH  21  24
ATOM     24  OH  TYR A   2      -5.149  -5.448  43.158  0.00  0.00    -0.506 OA
ATOM     25  HH  TYR A   2      -4.561  -4.691  43.406  0.00  0.00    +0.292 HD
ENDBRANCH  21  24
ENDBRANCH  17  18
ENDBRANCH  14  17
ENDBRANCH   2  14
TORSDOF 9
REMARK  Name = ../refined-set-2016/4qlk/4qlk_pocket.pdb
REMARK  284 active torsions:
REMARK  status: ('A' for Active; 'I' for Inactive)
REMARK    1  A    between atoms: _1  and  _3
REMARK    2  A    between atoms: _3  and  _4
REMARK    3  A    between atoms: _3  and  _6
REMARK    4  A    between atoms: _9  and  _11
REMARK    5  A    between atoms: _11  and  _12
REMARK    6  A    between atoms: _11  and  _14
REMARK    7  A    between atoms: _14  and  _15
REMARK    8  A    between atoms: _18  and  _20
REMARK    9  A    between atoms: _20  and  _21
REMARK   10  A    between atoms: _20  and  _23
REMARK   11  A    between atoms: _23  and  _24
REMARK   12  A    between atoms: _26  and  _28
REMARK   13  A    between atoms: _28  and  _29
REMARK   14  A    between atoms: _28  and  _31
REMARK   15  A    between atoms: _31  and  _32
REMARK   16  A    between atoms: _32  and  _33
REMARK   17  A    between atoms: _38  and  _40
REMARK   18  A    between atoms: _40  and  _41
REMARK   19  A    between atoms: _40  and  _43
REMARK   20  A    between atoms: _43  and  _44
REMARK   21  A    between atoms: _44  and  _45
REMARK   22  A    between atoms: _45  and  _46
REMARK   23  A    between atoms: _55  and  _57
REMARK   24  A    between atoms: _57  and  _58
REMARK   25  A    between atoms: _57  and  _60
REMARK   26  A    between atoms: _60  and  _61
REMARK   27  A    between atoms: _66  and  _68
REMARK   28  A    between atoms: _68  and  _69
REMARK   29  A    between atoms: _68  and  _71
REMARK   30  A    between atoms: _71  and  _72
REMARK   31  A    between atoms: _77  and  _78
REMARK   32  A    between atoms: _80  and  _82
REMARK   33  A    between atoms: _82  and  _83
REMARK   34  A    between atoms: _82  and  _85
REMARK   35  A    between atoms: _85  and  _86
REMARK   36  A    between atoms: _91  and  _93
REMARK   37  A    between atoms: _93  and  _94
REMARK   38  A    between atoms: _93  and  _96
REMARK   39  A    between atoms: _96  and  _97
REMARK   40  A    between atoms: _97  and  _98
REMARK   41  A    between atoms: _103  and  _105
REMARK   42  A    between atoms: _105  and  _106
REMARK   43  A    between atoms: _105  and  _108
REMARK   44  A    between atoms: _108  and  _109
REMARK   45  A    between atoms: _109  and  _110
REMARK   46  A    between atoms: _110  and  _111
REMARK   47  A    between atoms: _120  and  _122
REMARK   48  A    between atoms: _122  and  _123
REMARK   49  A    between atoms: _122  and  _125
REMARK   50  A    between atoms: _125  and  _126
REMARK   51  A    between atoms: _129  and  _131
REMARK   52  A    between atoms: _131  and  _132
REMARK   53  A    between atoms: _131  and  _134
REMARK   54  A    between atoms: _134  and  _135
REMARK   55  A    between atoms: _138  and  _140
REMARK   56  A    between atoms: _140  and  _141
REMARK   57  A    between atoms: _140  and  _143
REMARK   58  A    between atoms: _143  and  _144
REMARK   59  A    between atoms: _147  and  _149
REMARK   60  A    between atoms: _149  and  _150
REMARK   61  A    between atoms: _149  and  _152
REMARK   62  A    between atoms: _152  and  _153
REMARK   63  A    between atoms: _156  and  _158
REMARK   64  A    between atoms: _158  and  _159
REMARK   65  A    between atoms: _158  and  _161
REMARK   66  A    between atoms: _161  and  _162
REMARK   67  A    between atoms: _162  and  _163
REMARK   68  A    between atoms: _168  and  _170
REMARK   69  A    between atoms: _170  and  _171
REMARK   70  A    between atoms: _170  and  _173
REMARK   71  A    between atoms: _173  and  _174
REMARK   72  A    between atoms: _177  and  _179
REMARK   73  A    between atoms: _179  and  _180
REMARK   74  A    between atoms: _179  and  _182
REMARK   75  A    between atoms: _182  and  _183
REMARK   76  A    between atoms: _188  and  _190
REMARK   77  A    between atoms: _190  and  _191
REMARK   78  A    between atoms: _190  and  _193
REMARK   79  A    between atoms: _196  and  _198
REMARK   80  A    between atoms: _198  and  _199
REMARK   81  A    between atoms: _198  and  _201
REMARK   82  A    between atoms: _201  and  _202
REMARK   83  A    between atoms: _205  and  _207
REMARK   84  A    between atoms: _207  and  _208
REMARK   85  A    between atoms: _207  and  _210
REMARK   86  A    between atoms: _210  and  _211
REMARK   87  A    between atoms: _214  and  _216
REMARK   88  A    between atoms: _216  and  _217
REMARK   89  A    between atoms: _216  and  _219
REMARK   90  A    between atoms: _219  and  _220
REMARK   91  A    between atoms: _226  and  _228
REMARK   92  A    between atoms: _228  and  _229
REMARK   93  A    between atoms: _228  and  _231
REMARK   94  A    between atoms: _231  and  _232
REMARK   95  A    between atoms: _237  and  _239
REMARK   96  A    between atoms: _239  and  _240
REMARK   97  A    between atoms: _239  and  _242
REMARK   98  A    between atoms: _242  and  _243
REMARK   99  A    between atoms: _253  and  _255
REMARK  100  A    between atoms: _255  and  _256
REMARK  101  A    between atoms: _255  and  _258
REMARK  102  A    between atoms: _258  and  _259
REMARK  103  A    between atoms: _264  and  _265
REMARK  104  A    between atoms: _267  and  _269
REMARK  105  A    between atoms: _269  and  _270
REMARK  106  A    between atoms: _273  and  _275
REMARK  107  A    between atoms: _275  and  _276
REMARK  108  A    between atoms: _275  and  _278
REMARK  109  A    between atoms: _278  and  _279
REMARK  110  A    between atoms: _285  and  _287
REMARK  111  A    between atoms: _287  and  _288
REMARK  112  A    between atoms: _287  and  _290
REMARK  113  A    between atoms: _290  and  _291
REMARK  114  A    between atoms: _296  and  _298
REMARK  115  A    between atoms: _298  and  _299
REMARK  116  A    between atoms: _298  and  _301
REMARK  117  A    between atoms: _301  and  _302
REMARK  118  A    between atoms: _307  and  _309
REMARK  119  A    between atoms: _309  and  _310
REMARK  120  A    between atoms: _309  and  _312
REMARK  121  A    between atoms: _312  and  _313
REMARK  122  A    between atoms: _313  and  _314
REMARK  123  A    between atoms: _319  and  _321
REMARK  124  A    between atoms: _321  and  _322
REMARK  125  A    between atoms: _321  and  _324
REMARK  126  A    between atoms: _324  and  _325
REMARK  127  A    between atoms: _330  and  _331
REMARK  128  A    between atoms: _333  and  _335
REMARK  129  A    between atoms: _335  and  _336
REMARK  130  A    between atoms: _335  and  _338
REMARK  131  A    between atoms: _338  and  _339
REMARK  132  A    between atoms: _342  and  _344
REMARK  133  A    between atoms: _344  and  _345
REMARK  134  A    between atoms: _348  and  _350
REMARK  135  A    between atoms: _350  and  _351
REMARK  136  A    between atoms: _350  and  _353
REMARK  137  A    between atoms: _353  and  _354
REMARK  138  A    between atoms: _356  and  _358
REMARK  139  A    between atoms: _358  and  _359
REMARK  140  A    between atoms: _358  and  _361
REMARK  141  A    between atoms: _361  and  _362
REMARK  142  A    between atoms: _367  and  _368
REMARK  143  A    between atoms: _370  and  _372
REMARK  144  A    between atoms: _372  and  _373
REMARK  145  A    between atoms: _372  and  _375
REMARK  146  A    between atoms: _375  and  _376
REMARK  147  A    between atoms: _376  and  _377
REMARK  148  A    between atoms: _379  and  _381
REMARK  149  A    between atoms: _381  and  _382
REMARK  150  A    between atoms: _381  and  _384
REMARK  151  A    between atoms: _384  and  _385
REMARK  152  A    between atoms: _385  and  _386
REMARK  153  A    between atoms: _386  and  _387
REMARK  154  A    between atoms: _387  and  _388
REMARK  155  A    between atoms: _392  and  _394
REMARK  156  A    between atoms: _394  and  _395
REMARK  157  A    between atoms: _394  and  _397
REMARK  158  A    between atoms: _397  and  _398
REMARK  159  A    between atoms: _400  and  _402
REMARK  160  A    between atoms: _402  and  _403
REMARK  161  A    between atoms: _402  and  _405
REMARK  162  A    between atoms: _405  and  _406
REMARK  163  A    between atoms: _411  and  _412
REMARK  164  A    between atoms: _414  and  _416
REMARK  165  A    between atoms: _416  and  _417
REMARK  166  A    between atoms: _416  and  _419
REMARK  167  A    between atoms: _419  and  _420
REMARK  168  A    between atoms: _422  and  _424
REMARK  169  A    between atoms: _424  and  _425
REMARK  170  A    between atoms: _428  and  _430
REMARK  171  A    between atoms: _430  and  _431
REMARK  172  A    between atoms: _430  and  _433
REMARK  173  A    between atoms: _433  and  _434
REMARK  174  A    between atoms: _437  and  _439
REMARK  175  A    between atoms: _439  and  _440
REMARK  176  A    between atoms: _439  and  _442
REMARK  177  A    between atoms: _442  and  _443
REMARK  178  A    between atoms: _453  and  _455
REMARK  179  A    between atoms: _455  and  _456
REMARK  180  A    between atoms: _455  and  _458
REMARK  181  A    between atoms: _458  and  _459
REMARK  182  A    between atoms: _459  and  _460
REMARK  183  A    between atoms: _465  and  _467
REMARK  184  A    between atoms: _467  and  _468
REMARK  185  A    between atoms: _467  and  _470
REMARK  186  A    between atoms: _473  and  _475
REMARK  187  A    between atoms: _475  and  _476
REMARK  188  A    between atoms: _475  and  _478
REMARK  189  A    between atoms: _478  and  _479
REMARK  190  A    between atoms: _482  and  _484
REMARK  191  A    between atoms: _484  and  _485
REMARK  192  A    between atoms: _488  and  _490
REMARK  193  A    between atoms: _490  and  _491
REMARK  194  A    between atoms: _490  and  _493
REMARK  195  A    between atoms: _496  and  _498
REMARK  196  A    between atoms: _498  and  _499
REMARK  197  A    between atoms: _498  and  _501
REMARK  198  A    between atoms: _501  and  _502
REMARK  199  A    between atoms: _508  and  _510
REMARK  200  A    between atoms: _510  and  _511
REMARK  201  A    between atoms: _510  and  _513
REMARK  202  A    between atoms: _513  and  _514
REMARK  203  A    between atoms: _516  and  _518
REMARK  204  A    between atoms: _518  and  _519
REMARK  205  A    between atoms: _518  and  _521
REMARK  206  A    between atoms: _521  and  _522
REMARK  207  A    between atoms: _527  and  _529
REMARK  208  A    between atoms: _529  and  _530
REMARK  209  A    between atoms: _529  and  _532
REMARK  210  A    between atoms: _532  and  _533
REMARK  211  A    between atoms: _543  and  _545
REMARK  212  A    between atoms: _545  and  _546
REMARK  213  A    between atoms: _545  and  _548
REMARK  214  A    between atoms: _548  and  _549
REMARK  215  A    between atoms: _552  and  _554
REMARK  216  A    between atoms: _554  and  _555
REMARK  217  A    between atoms: _554  and  _557
REMARK  218  A    between atoms: _557  and  _558
REMARK  219  A    between atoms: _563  and  _564
REMARK  220  A    between atoms: _566  and  _568
REMARK  221  A    between atoms: _568  and  _569
REMARK  222  A    between atoms: _568  and  _571
REMARK  223  A    between atoms: _571  and  _572
REMARK  224  A    between atoms: _575  and  _577
REMARK  225  A    between atoms: _577  and  _578
REMARK  226  A    between atoms: _577  and  _580
REMARK  227  A    between atoms: _580  and  _581
REMARK  228  A    between atoms: _581  and  _582
REMARK  229  A    between atoms: _585  and  _587
REMARK  230  A    between atoms: _587  and  _588
REMARK  231  A    between atoms: _587  and  _590
REMARK  232  A    between atoms: _590  and  _591
REMARK  233  A    between atoms: _596  and  _598
REMARK  234  A    between atoms: _598  and  _599
REMARK  235  A    between atoms: _601  and  _603
REMARK  236  A    between atoms: _603  and  _604
REMARK  237  A    between atoms: _603  and  _606
REMARK  238  A    between atoms: _606  and  _607
REMARK  239  A    between atoms: _607  and  _608
REMARK  240  A    between atoms: _610  and  _612
REMARK  241  A    between atoms: _612  and  _613
REMARK  242  A    between atoms: _612  and  _615
REMARK  243  A    between atoms: _615  and  _616
REMARK  244  A    between atoms: _619  and  _621
REMARK  245  A    between atoms: _621  and  _622
REMARK  246  A    between atoms: _621  and  _624
REMARK  247  A    between atoms: _624  and  _625
REMARK  248  A    between atoms: _635  and  _637
REMARK  249  A    between atoms: _637  and  _638
REMARK  250  A    between atoms: _637  and  _640
REMARK  251  A    between atoms: _640  and  _641
REMARK  252  A    between atoms: _643  and  _645
REMARK  253  A    between atoms: _645  and  _646
REMARK  254  A    between atoms: _645  and  _648
REMARK  255  A    between atoms: _648  and  _649
REMARK  256  A    between atoms: _654  and  _656
REMARK  257  A    between atoms: _656  and  _657
REMARK  258  A    between atoms: _656  and  _659
REMARK  259  A    between atoms: _659  and  _660
REMARK  260  A    between atoms: _666  and  _668
REMARK  261  A    between atoms: _668  and  _669
REMARK  262  A    between atoms: _668  and  _671
REMARK  263  A    between atoms: _671  and  _672
REMARK  264  A    between atoms: _672  and  _673
REMARK  265  A    between atoms: _676  and  _678
REMARK  266  A    between atoms: _678  and  _679
REMARK  267  A    between atoms: _678  and  _681
REMARK  268  A    between atoms: _681  and  _682
REMARK  269  A    between atoms: _692  and  _694
REMARK  270  A    between atoms: _694  and  _695
REMARK  271  A    between atoms: _694  and  _697
REMARK  272  A    between atoms: _697  and  _698
REMARK  273  A    between atoms: _701  and  _703
REMARK  274  A    between atoms: _703  and  _704
REMARK  275  A    between atoms: _703  and  _706
REMARK  276  A    between atoms: _706  and  _707
REMARK  277  A    between atoms: _709  and  _711
REMARK  278  A    between atoms: _711  and  _712
REMARK  279  A    between atoms: _711  and  _714
REMARK  280  A    between atoms: _714  and  _715
REMARK  281  A    between atoms: _717  and  _719
REMARK  282  A    between atoms: _719  and  _720
REMARK  283  A    between atoms: _719  and  _722
REMARK  284  A    between atoms: _722  and  _723
REMARK                            x       y       z     vdW  Elec       q    Type
REMARK                         _______ _______ _______ _____ _____    ______ ____
ROOT
ATOM      1  C   ASN A   1      -5.862 -10.669  42.298  0.00  0.00    +0.239 C 
ATOM      2  N   GLN A   2      -6.011 -10.943  43.585  0.00  0.00    -0.298 N 
ATOM      3  H   GLN A   2      -5.527 -11.778  43.972  0.00  0.00    +0.150 HD
ATOM      4  O   ASN A   1      -6.425  -9.729  41.745  0.00  0.00    -0.274 OA
ENDROOT
BRANCH   1   5
ATOM      5  CA  ASN A   1      -4.888 -11.557  41.541  0.00  0.00    +0.154 C 
BRANCH   5   6
ATOM      6  N   ASN A   1      -5.528 -12.332  40.482  0.00  0.00    -0.238 NA
ATOM      7  H   ASN A   1      -5.939 -11.819  39.676  0.00  0.00    +0.142 HD
ENDBRANCH   5   6
BRANCH   5   8
ATOM      8  CB  ASN A   1      -3.769 -10.678  40.974  0.00  0.00    +0.111 C 
BRANCH   8   9
ATOM      9  CG  ASN A   1      -3.012  -9.944  42.064  0.00  0.00    +0.221 C 
ATOM     10  OD1 ASN A   1      -2.194 -10.537  42.760  0.00  0.00    -0.275 OA
ATOM     11  ND2 ASN A   1      -3.290  -8.657  42.223  0.00  0.00    -0.329 N 
ATOM     12 HD21 ASN A   1      -2.806  -8.108  42.962  0.00  0.00    +0.145 HD
ATOM     13 HD22 ASN A   1      -3.992  -8.197  41.608  0.00  0.00    +0.145 HD
ENDBRANCH   8   9
ENDBRANCH   5   8
ENDBRANCH   1   5
BRANCH   2  14
ATOM     14  CA  GLN A   2      -6.823 -10.128  44.488  0.00  0.00    +0.137 C 
BRANCH  14  15
ATOM     15  C   GLN A   2      -8.214  -9.785  43.939  0.00  0.00    +0.227 C 
ATOM     16  O   GLN A   2      -8.541  -8.613  43.769  0.00  0.00    -0.286 OA
ENDBRANCH  14  15
BRANCH  14  17
ATOM     17  CB  GLN A   2      -6.087  -8.836  44.859  0.00  0.00    +0.037 C 
BRANCH  17  18
ATOM     18  CG  GLN A   2      -4.670  -9.051  45.345  0.00  0.00    +0.087 C 
BRANCH  18  19
ATOM     19  CD  GLN A   2      -4.031  -7.813  45.966  0.00  0.00    +0.219 C 
ATOM     20  OE1 GLN A   2      -3.200  -7.936  46.863  0.00  0.00    -0.275 OA
ATOM     21  NE2 GLN A   2      -4.408  -6.627  45.498  0.00  0.00    -0.329 N 
ATOM     22 HE21 GLN A   2      -3.996  -5.757  45.892  0.00  0.00    +0.145 HD
ATOM     23 HE22 GLN A   2      -5.115  -6.569  44.737  0.00  0.00    +0.145 HD
ENDBRANCH  18  19
ENDBRANCH  17  18
ENDBRANCH  14  17
ENDBRANCH   2  14
TORSDOF 9
REMARK  Name = ../refined-set-2016/4qlk/4qlk_pocket.pdb
REMARK  284 active torsions:
REMARK  status: ('A' for Active; 'I' for Inactive)
REMARK    1  A    between atoms: _1  and  _3
REMARK    2  A    between atoms: _3  and  _4
REMARK    3  A    between atoms: _3  and  _6
REMARK    4  A    between atoms: _9  and  _11
REMARK    5  A    between atoms: _11  and  _12
REMARK    6  A    between atoms: _11  and  _14
REMARK    7  A    between atoms: _14  and  _15
REMARK    8  A    between atoms: _18  and  _20
REMARK    9  A    between atoms: _20  and  _21
REMARK   10  A    between atoms: _20  and  _23
REMARK   11  A    between atoms: _23  and  _24
REMARK   12  A    between atoms: _26  and  _28
REMARK   13  A    between atoms: _28  and  _29
REMARK   14  A    between atoms: _28  and  _31
REMARK   15  A    between atoms: _31  and  _32
REMARK   16  A    between atoms: _32  and  _33
REMARK   17  A    between atoms: _38  and  _40
REMARK   18  A    between atoms: _40  and  _41
REMARK   19  A    between atoms: _40  and  _43
REMARK   20  A    between atoms: _43  and  _44
REMARK   21  A    between atoms: _44  and  _45
REMARK   22  A    between atoms: _45  and  _46
REMARK   23  A    between atoms: _55  and  _57
REMARK   24  A    between atoms: _57  and  _58
REMARK   25  A    between atoms: _57  and  _60
REMARK   26  A    between atoms: _60  and  _61
REMARK   27  A    between atoms: _66  and  _68
REMARK   28  A    between atoms: _68  and  _69
REMARK   29  A    between atoms: _68  and  _71
REMARK   30  A    between atoms: _71  and  _72
REMARK   31  A    between atoms: _77  and  _78
REMARK   32  A    between atoms: _80  and  _82
REMARK   33  A    between atoms: _82  and  _83
REMARK   34  A    between atoms: _82  and  _85
REMARK   35  A    between atoms: _85  and  _86
REMARK   36  A    between atoms: _91  and  _93
REMARK   37  A    between atoms: _93  and  _94
REMARK   38  A    between atoms: _93  and  _96
REMARK   39  A    between atoms: _96  and  _97
REMARK   40  A    between atoms: _97  and  _98
REMARK   41  A    between atoms: _103  and  _105
REMARK   42  A    between atoms: _105  and  _106
REMARK   43  A    between atoms: _105  and  _108
REMARK   44  A    between atoms: _108  and  _109
REMARK   45  A    between atoms: _109  and  _110
REMARK   46  A    between atoms: _110  and  _111
REMARK   47  A    between atoms: _120  and  _122
REMARK   48  A    between atoms: _122  and  _123
REMARK   49  A    between atoms: _122  and  _125
REMARK   50  A    between atoms: _125  and  _126
REMARK   51  A    between atoms: _129  and  _131
REMARK   52  A    between atoms: _131  and  _132
REMARK   53  A    between atoms: _131  and  _134
REMARK   54  A    between atoms: _134  and  _135
REMARK   55  A    between atoms: _138  and  _140
REMARK   56  A    between atoms: _140  and  _141
REMARK   57  A    between atoms: _140  and  _143
REMARK   58  A    between atoms: _143  and  _144
REMARK   59  A    between atoms: _147  and  _149
REMARK   60  A    between atoms: _149  and  _150
REMARK   61  A    between atoms: _149  and  _152
REMARK   62  A    between atoms: _152  and  _153
REMARK   63  A    between atoms: _156  and  _158
REMARK   64  A    between atoms: _158  and  _159
REMARK   65  A    between atoms: _158  and  _161
REMARK   66  A    between atoms: _161  and  _162
REMARK   67  A    between atoms: _162  and  _163
REMARK   68  A    between atoms: _168  and  _170
REMARK   69  A    between atoms: _170  and  _171
REMARK   70  A    between atoms: _170  and  _173
REMARK   71  A    between atoms: _173  and  _174
REMARK   72  A    between atoms: _177  and  _179
REMARK   73  A    between atoms: _179  and  _180
REMARK   74  A    between atoms: _179  and  _182
REMARK   75  A    between atoms: _182  and  _183
REMARK   76  A    between atoms: _188  and  _190
REMARK   77  A    between atoms: _190  and  _191
REMARK   78  A    between atoms: _190  and  _193
REMARK   79  A    between atoms: _196  and  _198
REMARK   80  A    between atoms: _198  and  _199
REMARK   81  A    between atoms: _198  and  _201
REMARK   82  A    between atoms: _201  and  _202
REMARK   83  A    between atoms: _205  and  _207
REMARK   84  A    between atoms: _207  and  _208
REMARK   85  A    between atoms: _207  and  _210
REMARK   86  A    between atoms: _210  and  _211
REMARK   87  A    between atoms: _214  and  _216
REMARK   88  A    between atoms: _216  and  _217
REMARK   89  A    between atoms: _216  and  _219
REMARK   90  A    between atoms: _219  and  _220
REMARK   91  A    between atoms: _226  and  _228
REMARK   92  A    between atoms: _228  and  _229
REMARK   93  A    between atoms: _228  and  _231
REMARK   94  A    between atoms: _231  and  _232
REMARK   95  A    between atoms: _237  and  _239
REMARK   96  A    between atoms: _239  and  _240
REMARK   97  A    between atoms: _239  and  _242
REMARK   98  A    between atoms: _242  and  _243
REMARK   99  A    between atoms: _253  and  _255
REMARK  100  A    between atoms: _255  and  _256
REMARK  101  A    between atoms: _255  and  _258
REMARK  102  A    between atoms: _258  and  _259
REMARK  103  A    between atoms: _264  and  _265
REMARK  104  A    between atoms: _267  and  _269
REMARK  105  A    between atoms: _269  and  _270
REMARK  106  A    between atoms: _273  and  _275
REMARK  107  A    between atoms: _275  and  _276
REMARK  108  A    between atoms: _275  and  _278
REMARK  109  A    between atoms: _278  and  _279
REMARK  110  A    between atoms: _285  and  _287
REMARK  111  A    between atoms: _287  and  _288
REMARK  112  A    between atoms: _287  and  _290
REMARK  113  A    between atoms: _290  and  _291
REMARK  114  A    between atoms: _296  and  _298
REMARK  115  A    between atoms: _298  and  _299
REMARK  116  A    between atoms: _298  and  _301
REMARK  117  A    between atoms: _301  and  _302
REMARK  118  A    between atoms: _307  and  _309
REMARK  119  A    between atoms: _309  and  _310
REMARK  120  A    between atoms: _309  and  _312
REMARK  121  A    between atoms: _312  and  _313
REMARK  122  A    between atoms: _313  and  _314
REMARK  123  A    between atoms: _319  and  _321
REMARK  124  A    between atoms: _321  and  _322
REMARK  125  A    between atoms: _321  and  _324
REMARK  126  A    between atoms: _324  and  _325
REMARK  127  A    between atoms: _330  and  _331
REMARK  128  A    between atoms: _333  and  _335
REMARK  129  A    between atoms: _335  and  _336
REMARK  130  A    between atoms: _335  and  _338
REMARK  131  A    between atoms: _338  and  _339
REMARK  132  A    between atoms: _342  and  _344
REMARK  133  A    between atoms: _344  and  _345
REMARK  134  A    between atoms: _348  and  _350
REMARK  135  A    between atoms: _350  and  _351
REMARK  136  A    between atoms: _350  and  _353
REMARK  137  A    between atoms: _353  and  _354
REMARK  138  A    between atoms: _356  and  _358
REMARK  139  A    between atoms: _358  and  _359
REMARK  140  A    between atoms: _358  and  _361
REMARK  141  A    between atoms: _361  and  _362
REMARK  142  A    between atoms: _367  and  _368
REMARK  143  A    between atoms: _370  and  _372
REMARK  144  A    between atoms: _372  and  _373
REMARK  145  A    between atoms: _372  and  _375
REMARK  146  A    between atoms: _375  and  _376
REMARK  147  A    between atoms: _376  and  _377
REMARK  148  A    between atoms: _379  and  _381
REMARK  149  A    between atoms: _381  and  _382
REMARK  150  A    between atoms: _381  and  _384
REMARK  151  A    between atoms: _384  and  _385
REMARK  152  A    between atoms: _385  and  _386
REMARK  153  A    between atoms: _386  and  _387
REMARK  154  A    between atoms: _387  and  _388
REMARK  155  A    between atoms: _392  and  _394
REMARK  156  A    between atoms: _394  and  _395
REMARK  157  A    between atoms: _394  and  _397
REMARK  158  A    between atoms: _397  and  _398
REMARK  159  A    between atoms: _400  and  _402
REMARK  160  A    between atoms: _402  and  _403
REMARK  161  A    between atoms: _402  and  _405
REMARK  162  A    between atoms: _405  and  _406
REMARK  163  A    between atoms: _411  and  _412
REMARK  164  A    between atoms: _414  and  _416
REMARK  165  A    between atoms: _416  and  _417
REMARK  166  A    between atoms: _416  and  _419
REMARK  167  A    between atoms: _419  and  _420
REMARK  168  A    between atoms: _422  and  _424
REMARK  169  A    between atoms: _424  and  _425
REMARK  170  A    between atoms: _428  and  _430
REMARK  171  A    between atoms: _430  and  _431
REMARK  172  A    between atoms: _430  and  _433
REMARK  173  A    between atoms: _433  and  _434
REMARK  174  A    between atoms: _437  and  _439
REMARK  175  A    between atoms: _439  and  _440
REMARK  176  A    between atoms: _439  and  _442
REMARK  177  A    between atoms: _442  and  _443
REMARK  178  A    between atoms: _453  and  _455
REMARK  179  A    between atoms: _455  and  _456
REMARK  180  A    between atoms: _455  and  _458
REMARK  181  A    between atoms: _458  and  _459
REMARK  182  A    between atoms: _459  and  _460
REMARK  183  A    between atoms: _465  and  _467
REMARK  184  A    between atoms: _467  and  _468
REMARK  185  A    between atoms: _467  and  _470
REMARK  186  A    between atoms: _473  and  _475
REMARK  187  A    between atoms: _475  and  _476
REMARK  188  A    between atoms: _475  and  _478
REMARK  189  A    between atoms: _478  and  _479
REMARK  190  A    between atoms: _482  and  _484
REMARK  191  A    between atoms: _484  and  _485
REMARK  192  A    between atoms: _488  and  _490
REMARK  193  A    between atoms: _490  and  _491
REMARK  194  A    between atoms: _490  and  _493
REMARK  195  A    between atoms: _496  and  _498
REMARK  196  A    between atoms: _498  and  _499
REMARK  197  A    between atoms: _498  and  _501
REMARK  198  A    between atoms: _501  and  _502
REMARK  199  A    between atoms: _508  and  _510
REMARK  200  A    between atoms: _510  and  _511
REMARK  201  A    between atoms: _510  and  _513
REMARK  202  A    between atoms: _513  and  _514
REMARK  203  A    between atoms: _516  and  _518
REMARK  204  A    between atoms: _518  and  _519
REMARK  205  A    between atoms: _518  and  _521
REMARK  206  A    between atoms: _521  and  _522
REMARK  207  A    between atoms: _527  and  _529
REMARK  208  A    between atoms: _529  and  _530
REMARK  209  A    between atoms: _529  and  _532
REMARK  210  A    between atoms: _532  and  _533
REMARK  211  A    between atoms: _543  and  _545
REMARK  212  A    between atoms: _545  and  _546
REMARK  213  A    between atoms: _545  and  _548
REMARK  214  A    between atoms: _548  and  _549
REMARK  215  A    between atoms: _552  and  _554
REMARK  216  A    between atoms: _554  and  _555
REMARK  217  A    between atoms: _554  and  _557
REMARK  218  A    between atoms: _557  and  _558
REMARK  219  A    between atoms: _563  and  _564
REMARK  220  A    between atoms: _566  and  _568
REMARK  221  A    between atoms: _568  and  _569
REMARK  222  A    between atoms: _568  and  _571
REMARK  223  A    between atoms: _571  and  _572
REMARK  224  A    between atoms: _575  and  _577
REMARK  225  A    between atoms: _577  and  _578
REMARK  226  A    between atoms: _577  and  _580
REMARK  227  A    between atoms: _580  and  _581
REMARK  228  A    between atoms: _581  and  _582
REMARK  229  A    between atoms: _585  and  _587
REMARK  230  A    between atoms: _587  and  _588
REMARK  231  A    between atoms: _587  and  _590
REMARK  232  A    between atoms: _590  and  _591
REMARK  233  A    between atoms: _596  and  _598
REMARK  234  A    between atoms: _598  and  _599
REMARK  235  A    between atoms: _601  and  _603
REMARK  236  A    between atoms: _603  and  _604
REMARK  237  A    between atoms: _603  and  _606
REMARK  238  A    between atoms: _606  and  _607
REMARK  239  A    between atoms: _607  and  _608
REMARK  240  A    between atoms: _610  and  _612
REMARK  241  A    between atoms: _612  and  _613
REMARK  242  A    between atoms: _612  and  _615
REMARK  243  A    between atoms: _615  and  _616
REMARK  244  A    between atoms: _619  and  _621
REMARK  245  A    between atoms: _621  and  _622
REMARK  246  A    between atoms: _621  and  _624
REMARK  247  A    between atoms: _624  and  _625
REMARK  248  A    between atoms: _635  and  _637
REMARK  249  A    between atoms: _637  and  _638
REMARK  250  A    between atoms: _637  and  _640
REMARK  251  A    between atoms: _640  and  _641
REMARK  252  A    between atoms: _643  and  _645
REMARK  253  A    between atoms: _645  and  _646
REMARK  254  A    between atoms: _645  and  _648
REMARK  255  A    between atoms: _648  and  _649
REMARK  256  A    between atoms: _654  and  _656
REMARK  257  A    between atoms: _656  and  _657
REMARK  258  A    between atoms: _656  and  _659
REMARK  259  A    between atoms: _659  and  _660
REMARK  260  A    between atoms: _666  and  _668
REMARK  261  A    between atoms: _668  and  _669
REMARK  262  A    between atoms: _668  and  _671
REMARK  263  A    between atoms: _671  and  _672
REMARK  264  A    between atoms: _672  and  _673
REMARK  265  A    between atoms: _676  and  _678
REMARK  266  A    between atoms: _678  and  _679
REMARK  267  A    between atoms: _678  and  _681
REMARK  268  A    between atoms: _681  and  _682
REMARK  269  A    between atoms: _692  and  _694
REMARK  270  A    between atoms: _694  and  _695
REMARK  271  A    between atoms: _694  and  _697
REMARK  272  A    between atoms: _697  and  _698
REMARK  273  A    between atoms: _701  and  _703
REMARK  274  A    between atoms: _703  and  _704
REMARK  275  A    between atoms: _703  and  _706
REMARK  276  A    between atoms: _706  and  _707
REMARK  277  A    between atoms: _709  and  _711
REMARK  278  A    between atoms: _711  and  _712
REMARK  279  A    between atoms: _711  and  _714
REMARK  280  A    between atoms: _714  and  _715
REMARK  281  A    between atoms: _717  and  _719
REMARK  282  A    between atoms: _719  and  _720
REMARK  283  A    between atoms: _719  and  _722
REMARK  284  A    between atoms: _722  and  _723
REMARK                            x       y       z     vdW  Elec       q    Type
REMARK                         _______ _______ _______ _____ _____    ______ ____
ROOT
ATOM      1  CA  ARG A   1     -11.449  -8.855  46.590  0.00  0.00    +0.145 C 
ENDROOT
BRANCH   1   2
ATOM      2  C   ARG A   1     -11.252  -7.382  46.259  0.00  0.00    +0.238 C 
ATOM      3  O   ARG A   1     -12.171  -6.597  46.417  0.00  0.00    -0.274 OA
ATOM      4  N   ILE A   2     -10.066  -7.023  45.779  0.00  0.00    -0.298 N 
ATOM      5  H   ILE A   2      -9.343  -7.754  45.621  0.00  0.00    +0.150 HD
BRANCH   4   6
ATOM      6  CA  ILE A   2      -9.746  -5.624  45.465  0.00  0.00    +0.137 C 
BRANCH   6   7
ATOM      7  CB  ILE A   2      -8.219  -5.397  45.407  0.00  0.00    +0.026 C 
ATOM      8  CG2 ILE A   2      -7.865  -3.980  44.943  0.00  0.00    +0.002 C 
BRANCH   7   9
ATOM      9  CG1 ILE A   2      -7.591  -5.699  46.780  0.00  0.00    +0.002 C 
ATOM     10  CD1 ILE A   2      -8.124  -4.884  47.949  0.00  0.00    +0.000 C 
ENDBRANCH   7   9
ENDBRANCH   6   7
BRANCH   6  11
ATOM     11  C   ILE A   2     -10.462  -5.172  44.179  0.00  0.00    +0.227 C 
ATOM     12  O   ILE A   2     -10.933  -4.042  44.092  0.00  0.00    -0.286 OA
ENDBRANCH   6  11
ENDBRANCH   4   6
ENDBRANCH   1   2
BRANCH   1  13
ATOM     13  N   ARG A   1     -10.818  -9.731  45.577  0.00  0.00    -0.238 NA
ATOM     14  H   ARG A   1     -10.094 -10.418  45.870  0.00  0.00    +0.142 HD
ENDBRANCH   1  13
BRANCH   1  15
ATOM     15  CB  ARG A   1     -10.935  -9.113  48.002  0.00  0.00    +0.030 C 
BRANCH  15  16
ATOM     16  CG  ARG A   1     -11.756  -8.404  49.077  0.00  0.00    +0.045 C 
BRANCH  16  17
ATOM     17  CD  ARG A   1     -11.058  -8.385  50.427  0.00  0.00    +0.174 C 
BRANCH  17  18
ATOM     18  NE  ARG A   1     -10.149  -7.246  50.601  0.00  0.00    -0.265 N 
ATOM     19  CZ  ARG A   1     -10.476  -6.082  51.151  0.00  0.00    +0.342 C 
ATOM     20  NH2 ARG A   1     -11.714  -5.851  51.555  0.00  0.00    -0.292 N 
ATOM     21 HH21 ARG A   1     -11.959  -4.936  51.984  0.00  0.00    +0.255 HD
ATOM     22 HH22 ARG A   1     -12.443  -6.584  51.443  0.00  0.00    +0.255 HD
ATOM     23  NH1 ARG A   1      -9.559  -5.129  51.278  0.00  0.00    -0.292 N 
ATOM     24 HH11 ARG A   1      -9.813  -4.217  51.708  0.00  0.00    +0.255 HD
ATOM     25 HH12 ARG A   1      -8.587  -5.295  50.947  0.00  0.00    +0.255 HD
ATOM     26  HE  ARG A   1      -9.171  -7.359  50.267  0.00  0.00    +0.259 HD
ENDBRANCH  17  18
ENDBRANCH  16  17
ENDBRANCH  15  16
ENDBRANCH   1  15
TORSDOF 10
REMARK  Name = ../refined-set-2016/4qlk/4qlk_pocket.pdb
REMARK  284 active torsions:
REMARK  status: ('A' for Active; 'I' for Inactive)
REMARK    1  A    between atoms: _1  and  _3
REMARK    2  A    between atoms: _3  and  _4
REMARK    3  A    between atoms: _3  and  _6
REMARK    4  A    between atoms: _9  and  _11
REMARK    5  A    between atoms: _11  and  _12
REMARK    6  A    between atoms: _11  and  _14
REMARK    7  A    between atoms: _14  and  _15
REMARK    8  A    between atoms: _18  and  _20
REMARK    9  A    between atoms: _20  and  _21
REMARK   10  A    between atoms: _20  and  _23
REMARK   11  A    between atoms: _23  and  _24
REMARK   12  A    between atoms: _26  and  _28
REMARK   13  A    between atoms: _28  and  _29
REMARK   14  A    between atoms: _28  and  _31
REMARK   15  A    between atoms: _31  and  _32
REMARK   16  A    between atoms: _32  and  _33
REMARK   17  A    between atoms: _38  and  _40
REMARK   18  A    between atoms: _40  and  _41
REMARK   19  A    between atoms: _40  and  _43
REMARK   20  A    between atoms: _43  and  _44
REMARK   21  A    between atoms: _44  and  _45
REMARK   22  A    between atoms: _45  and  _46
REMARK   23  A    between atoms: _55  and  _57
REMARK   24  A    between atoms: _57  and  _58
REMARK   25  A    between atoms: _57  and  _60
REMARK   26  A    between atoms: _60  and  _61
REMARK   27  A    between atoms: _66  and  _68
REMARK   28  A    between atoms: _68  and  _69
REMARK   29  A    between atoms: _68  and  _71
REMARK   30  A    between atoms: _71  and  _72
REMARK   31  A    between atoms: _77  and  _78
REMARK   32  A    between atoms: _80  and  _82
REMARK   33  A    between atoms: _82  and  _83
REMARK   34  A    between atoms: _82  and  _85
REMARK   35  A    between atoms: _85  and  _86
REMARK   36  A    between atoms: _91  and  _93
REMARK   37  A    between atoms: _93  and  _94
REMARK   38  A    between atoms: _93  and  _96
REMARK   39  A    between atoms: _96  and  _97
REMARK   40  A    between atoms: _97  and  _98
REMARK   41  A    between atoms: _103  and  _105
REMARK   42  A    between atoms: _105  and  _106
REMARK   43  A    between atoms: _105  and  _108
REMARK   44  A    between atoms: _108  and  _109
REMARK   45  A    between atoms: _109  and  _110
REMARK   46  A    between atoms: _110  and  _111
REMARK   47  A    between atoms: _120  and  _122
REMARK   48  A    between atoms: _122  and  _123
REMARK   49  A    between atoms: _122  and  _125
REMARK   50  A    between atoms: _125  and  _126
REMARK   51  A    between atoms: _129  and  _131
REMARK   52  A    between atoms: _131  and  _132
REMARK   53  A    between atoms: _131  and  _134
REMARK   54  A    between atoms: _134  and  _135
REMARK   55  A    between atoms: _138  and  _140
REMARK   56  A    between atoms: _140  and  _141
REMARK   57  A    between atoms: _140  and  _143
REMARK   58  A    between atoms: _143  and  _144
REMARK   59  A    between atoms: _147  and  _149
REMARK   60  A    between atoms: _149  and  _150
REMARK   61  A    between atoms: _149  and  _152
REMARK   62  A    between atoms: _152  and  _153
REMARK   63  A    between atoms: _156  and  _158
REMARK   64  A    between atoms: _158  and  _159
REMARK   65  A    between atoms: _158  and  _161
REMARK   66  A    between atoms: _161  and  _162
REMARK   67  A    between atoms: _162  and  _163
REMARK   68  A    between atoms: _168  and  _170
REMARK   69  A    between atoms: _170  and  _171
REMARK   70  A    between atoms: _170  and  _173
REMARK   71  A    between atoms: _173  and  _174
REMARK   72  A    between atoms: _177  and  _179
REMARK   73  A    between atoms: _179  and  _180
REMARK   74  A    between atoms: _179  and  _182
REMARK   75  A    between atoms: _182  and  _183
REMARK   76  A    between atoms: _188  and  _190
REMARK   77  A    between atoms: _190  and  _191
REMARK   78  A    between atoms: _190  and  _193
REMARK   79  A    between atoms: _196  and  _198
REMARK   80  A    between atoms: _198  and  _199
REMARK   81  A    between atoms: _198  and  _201
REMARK   82  A    between atoms: _201  and  _202
REMARK   83  A    between atoms: _205  and  _207
REMARK   84  A    between atoms: _207  and  _208
REMARK   85  A    between atoms: _207  and  _210
REMARK   86  A    between atoms: _210  and  _211
REMARK   87  A    between atoms: _214  and  _216
REMARK   88  A    between atoms: _216  and  _217
REMARK   89  A    between atoms: _216  and  _219
REMARK   90  A    between atoms: _219  and  _220
REMARK   91  A    between atoms: _226  and  _228
REMARK   92  A    between atoms: _228  and  _229
REMARK   93  A    between atoms: _228  and  _231
REMARK   94  A    between atoms: _231  and  _232
REMARK   95  A    between atoms: _237  and  _239
REMARK   96  A    between atoms: _239  and  _240
REMARK   97  A    between atoms: _239  and  _242
REMARK   98  A    between atoms: _242  and  _243
REMARK   99  A    between atoms: _253  and  _255
REMARK  100  A    between atoms: _255  and  _256
REMARK  101  A    between atoms: _255  and  _258
REMARK  102  A    between atoms: _258  and  _259
REMARK  103  A    between atoms: _264  and  _265
REMARK  104  A    between atoms: _267  and  _269
REMARK  105  A    between atoms: _269  and  _270
REMARK  106  A    between atoms: _273  and  _275
REMARK  107  A    between atoms: _275  and  _276
REMARK  108  A    between atoms: _275  and  _278
REMARK  109  A    between atoms: _278  and  _279
REMARK  110  A    between atoms: _285  and  _287
REMARK  111  A    between atoms: _287  and  _288
REMARK  112  A    between atoms: _287  and  _290
REMARK  113  A    between atoms: _290  and  _291
REMARK  114  A    between atoms: _296  and  _298
REMARK  115  A    between atoms: _298  and  _299
REMARK  116  A    between atoms: _298  and  _301
REMARK  117  A    between atoms: _301  and  _302
REMARK  118  A    between atoms: _307  and  _309
REMARK  119  A    between atoms: _309  and  _310
REMARK  120  A    between atoms: _309  and  _312
REMARK  121  A    between atoms: _312  and  _313
REMARK  122  A    between atoms: _313  and  _314
REMARK  123  A    between atoms: _319  and  _321
REMARK  124  A    between atoms: _321  and  _322
REMARK  125  A    between atoms: _321  and  _324
REMARK  126  A    between atoms: _324  and  _325
REMARK  127  A    between atoms: _330  and  _331
REMARK  128  A    between atoms: _333  and  _335
REMARK  129  A    between atoms: _335  and  _336
REMARK  130  A    between atoms: _335  and  _338
REMARK  131  A    between atoms: _338  and  _339
REMARK  132  A    between atoms: _342  and  _344
REMARK  133  A    between atoms: _344  and  _345
REMARK  134  A    between atoms: _348  and  _350
REMARK  135  A    between atoms: _350  and  _351
REMARK  136  A    between atoms: _350  and  _353
REMARK  137  A    between atoms: _353  and  _354
REMARK  138  A    between atoms: _356  and  _358
REMARK  139  A    between atoms: _358  and  _359
REMARK  140  A    between atoms: _358  and  _361
REMARK  141  A    between atoms: _361  and  _362
REMARK  142  A    between atoms: _367  and  _368
REMARK  143  A    between atoms: _370  and  _372
REMARK  144  A    between atoms: _372  and  _373
REMARK  145  A    between atoms: _372  and  _375
REMARK  146  A    between atoms: _375  and  _376
REMARK  147  A    between atoms: _376  and  _377
REMARK  148  A    between atoms: _379  and  _381
REMARK  149  A    between atoms: _381  and  _382
REMARK  150  A    between atoms: _381  and  _384
REMARK  151  A    between atoms: _384  and  _385
REMARK  152  A    between atoms: _385  and  _386
REMARK  153  A    between atoms: _386  and  _387
REMARK  154  A    between atoms: _387  and  _388
REMARK  155  A    between atoms: _392  and  _394
REMARK  156  A    between atoms: _394  and  _395
REMARK  157  A    between atoms: _394  and  _397
REMARK  158  A    between atoms: _397  and  _398
REMARK  159  A    between atoms: _400  and  _402
REMARK  160  A    between atoms: _402  and  _403
REMARK  161  A    between atoms: _402  and  _405
REMARK  162  A    between atoms: _405  and  _406
REMARK  163  A    between atoms: _411  and  _412
REMARK  164  A    between atoms: _414  and  _416
REMARK  165  A    between atoms: _416  and  _417
REMARK  166  A    between atoms: _416  and  _419
REMARK  167  A    between atoms: _419  and  _420
REMARK  168  A    between atoms: _422  and  _424
REMARK  169  A    between atoms: _424  and  _425
REMARK  170  A    between atoms: _428  and  _430
REMARK  171  A    between atoms: _430  and  _431
REMARK  172  A    between atoms: _430  and  _433
REMARK  173  A    between atoms: _433  and  _434
REMARK  174  A    between atoms: _437  and  _439
REMARK  175  A    between atoms: _439  and  _440
REMARK  176  A    between atoms: _439  and  _442
REMARK  177  A    between atoms: _442  and  _443
REMARK  178  A    between atoms: _453  and  _455
REMARK  179  A    between atoms: _455  and  _456
REMARK  180  A    between atoms: _455  and  _458
REMARK  181  A    between atoms: _458  and  _459
REMARK  182  A    between atoms: _459  and  _460
REMARK  183  A    between atoms: _465  and  _467
REMARK  184  A    between atoms: _467  and  _468
REMARK  185  A    between atoms: _467  and  _470
REMARK  186  A    between atoms: _473  and  _475
REMARK  187  A    between atoms: _475  and  _476
REMARK  188  A    between atoms: _475  and  _478
REMARK  189  A    between atoms: _478  and  _479
REMARK  190  A    between atoms: _482  and  _484
REMARK  191  A    between atoms: _484  and  _485
REMARK  192  A    between atoms: _488  and  _490
REMARK  193  A    between atoms: _490  and  _491
REMARK  194  A    between atoms: _490  and  _493
REMARK  195  A    between atoms: _496  and  _498
REMARK  196  A    between atoms: _498  and  _499
REMARK  197  A    between atoms: _498  and  _501
REMARK  198  A    between atoms: _501  and  _502
REMARK  199  A    between atoms: _508  and  _510
REMARK  200  A    between atoms: _510  and  _511
REMARK  201  A    between atoms: _510  and  _513
REMARK  202  A    between atoms: _513  and  _514
REMARK  203  A    between atoms: _516  and  _518
REMARK  204  A    between atoms: _518  and  _519
REMARK  205  A    between atoms: _518  and  _521
REMARK  206  A    between atoms: _521  and  _522
REMARK  207  A    between atoms: _527  and  _529
REMARK  208  A    between atoms: _529  and  _530
REMARK  209  A    between atoms: _529  and  _532
REMARK  210  A    between atoms: _532  and  _533
REMARK  211  A    between atoms: _543  and  _545
REMARK  212  A    between atoms: _545  and  _546
REMARK  213  A    between atoms: _545  and  _548
REMARK  214  A    between atoms: _548  and  _549
REMARK  215  A    between atoms: _552  and  _554
REMARK  216  A    between atoms: _554  and  _555
REMARK  217  A    between atoms: _554  and  _557
REMARK  218  A    between atoms: _557  and  _558
REMARK  219  A    between atoms: _563  and  _564
REMARK  220  A    between atoms: _566  and  _568
REMARK  221  A    between atoms: _568  and  _569
REMARK  222  A    between atoms: _568  and  _571
REMARK  223  A    between atoms: _571  and  _572
REMARK  224  A    between atoms: _575  and  _577
REMARK  225  A    between atoms: _577  and  _578
REMARK  226  A    between atoms: _577  and  _580
REMARK  227  A    between atoms: _580  and  _581
REMARK  228  A    between atoms: _581  and  _582
REMARK  229  A    between atoms: _585  and  _587
REMARK  230  A    between atoms: _587  and  _588
REMARK  231  A    between atoms: _587  and  _590
REMARK  232  A    between atoms: _590  and  _591
REMARK  233  A    between atoms: _596  and  _598
REMARK  234  A    between atoms: _598  and  _599
REMARK  235  A    between atoms: _601  and  _603
REMARK  236  A    between atoms: _603  and  _604
REMARK  237  A    between atoms: _603  and  _606
REMARK  238  A    between atoms: _606  and  _607
REMARK  239  A    between atoms: _607  and  _608
REMARK  240  A    between atoms: _610  and  _612
REMARK  241  A    between atoms: _612  and  _613
REMARK  242  A    between atoms: _612  and  _615
REMARK  243  A    between atoms: _615  and  _616
REMARK  244  A    between atoms: _619  and  _621
REMARK  245  A    between atoms: _621  and  _622
REMARK  246  A    between atoms: _621  and  _624
REMARK  247  A    between atoms: _624  and  _625
REMARK  248  A    between atoms: _635  and  _637
REMARK  249  A    between atoms: _637  and  _638
REMARK  250  A    between atoms: _637  and  _640
REMARK  251  A    between atoms: _640  and  _641
REMARK  252  A    between atoms: _643  and  _645
REMARK  253  A    between atoms: _645  and  _646
REMARK  254  A    between atoms: _645  and  _648
REMARK  255  A    between atoms: _648  and  _649
REMARK  256  A    between atoms: _654  and  _656
REMARK  257  A    between atoms: _656  and  _657
REMARK  258  A    between atoms: _656  and  _659
REMARK  259  A    between atoms: _659  and  _660
REMARK  260  A    between atoms: _666  and  _668
REMARK  261  A    between atoms: _668  and  _669
REMARK  262  A    between atoms: _668  and  _671
REMARK  263  A    between atoms: _671  and  _672
REMARK  264  A    between atoms: _672  and  _673
REMARK  265  A    between atoms: _676  and  _678
REMARK  266  A    between atoms: _678  and  _679
REMARK  267  A    between atoms: _678  and  _681
REMARK  268  A    between atoms: _681  and  _682
REMARK  269  A    between atoms: _692  and  _694
REMARK  270  A    between atoms: _694  and  _695
REMARK  271  A    between atoms: _694  and  _697
REMARK  272  A    between atoms: _697  and  _698
REMARK  273  A    between atoms: _701  and  _703
REMARK  274  A    between atoms: _703  and  _704
REMARK  275  A    between atoms: _703  and  _706
REMARK  276  A    between atoms: _706  and  _707
REMARK  277  A    between atoms: _709  and  _711
REMARK  278  A    between atoms: _711  and  _712
REMARK  279  A    between atoms: _711  and  _714
REMARK  280  A    between atoms: _714  and  _715
REMARK  281  A    between atoms: _717  and  _719
REMARK  282  A    between atoms: _719  and  _720
REMARK  283  A    between atoms: _719  and  _722
REMARK  284  A    between atoms: _722  and  _723
REMARK                            x       y       z     vdW  Elec       q    Type
REMARK                         _______ _______ _______ _____ _____    ______ ____
ROOT
ATOM      1  C   LEU A   1     -13.858  -2.204  45.618  0.00  0.00    +0.238 C 
ATOM      2  O   LEU A   1     -14.673  -1.294  45.709  0.00  0.00    -0.274 OA
ATOM      3  N   LEU A   2     -12.742  -2.085  44.913  0.00  0.00    -0.298 N 
ATOM      4  H   LEU A   2     -12.121  -2.909  44.782  0.00  0.00    +0.150 HD
ENDROOT
BRANCH   1   5
ATOM      5  CA  LEU A   1     -14.090  -3.540  46.338  0.00  0.00    +0.145 C 
BRANCH   5   6
ATOM      6  N   LEU A   1     -14.017  -4.707  45.440  0.00  0.00    -0.238 NA
ATOM      7  H   LEU A   1     -13.231  -5.378  45.554  0.00  0.00    +0.142 HD
ENDBRANCH   5   6
BRANCH   5   8
ATOM      8  CB  LEU A   1     -13.084  -3.677  47.482  0.00  0.00    +0.026 C 
BRANCH   8   9
ATOM      9  CG  LEU A   1     -12.957  -2.465  48.424  0.00  0.00    +0.002 C 
ATOM     10  CD2 LEU A   1     -14.190  -2.334  49.309  0.00  0.00    +0.000 C 
ATOM     11  CD1 LEU A   1     -11.706  -2.594  49.279  0.00  0.00    +0.000 C 
ENDBRANCH   8   9
ENDBRANCH   5   8
ENDBRANCH   1   5
BRANCH   3  12
ATOM     12  CA  LEU A   2     -12.380  -0.799  44.318  0.00  0.00    +0.137 C 
BRANCH  12  13
ATOM     13  C   LEU A   2     -13.080  -0.552  42.978  0.00  0.00    +0.227 C 
ATOM     14  O   LEU A   2     -13.378   0.587  42.624  0.00  0.00    -0.286 OA
ENDBRANCH  12  13
BRANCH  12  15
ATOM     15  CB  LEU A   2     -10.863  -0.647  44.185  0.00  0.00    +0.028 C 
BRANCH  15  16
ATOM     16  CG  LEU A   2     -10.078  -0.713  45.517  0.00  0.00    +0.002 C 
ATOM     17  CD2 LEU A   2     -10.623   0.231  46.577  0.00  0.00    +0.000 C 
ATOM     18  CD1 LEU A   2      -8.596  -0.437  45.288  0.00  0.00    +0.000 C 
ENDBRANCH  15  16
ENDBRANCH  12  15
ENDBRANCH   3  12
TORSDOF 8
REMARK  Name = ../refined-set-2016/4qlk/4qlk_pocket.pdb
REMARK  284 active torsions:
REMARK  status: ('A' for Active; 'I' for Inactive)
REMARK    1  A    between atoms: _1  and  _3
REMARK    2  A    between atoms: _3  and  _4
REMARK    3  A    between atoms: _3  and  _6
REMARK    4  A    between atoms: _9  and  _11
REMARK    5  A    between atoms: _11  and  _12
REMARK    6  A    between atoms: _11  and  _14
REMARK    7  A    between atoms: _14  and  _15
REMARK    8  A    between atoms: _18  and  _20
REMARK    9  A    between atoms: _20  and  _21
REMARK   10  A    between atoms: _20  and  _23
REMARK   11  A    between atoms: _23  and  _24
REMARK   12  A    between atoms: _26  and  _28
REMARK   13  A    between atoms: _28  and  _29
REMARK   14  A    between atoms: _28  and  _31
REMARK   15  A    between atoms: _31  and  _32
REMARK   16  A    between atoms: _32  and  _33
REMARK   17  A    between atoms: _38  and  _40
REMARK   18  A    between atoms: _40  and  _41
REMARK   19  A    between atoms: _40  and  _43
REMARK   20  A    between atoms: _43  and  _44
REMARK   21  A    between atoms: _44  and  _45
REMARK   22  A    between atoms: _45  and  _46
REMARK   23  A    between atoms: _55  and  _57
REMARK   24  A    between atoms: _57  and  _58
REMARK   25  A    between atoms: _57  and  _60
REMARK   26  A    between atoms: _60  and  _61
REMARK   27  A    between atoms: _66  and  _68
REMARK   28  A    between atoms: _68  and  _69
REMARK   29  A    between atoms: _68  and  _71
REMARK   30  A    between atoms: _71  and  _72
REMARK   31  A    between atoms: _77  and  _78
REMARK   32  A    between atoms: _80  and  _82
REMARK   33  A    between atoms: _82  and  _83
REMARK   34  A    between atoms: _82  and  _85
REMARK   35  A    between atoms: _85  and  _86
REMARK   36  A    between atoms: _91  and  _93
REMARK   37  A    between atoms: _93  and  _94
REMARK   38  A    between atoms: _93  and  _96
REMARK   39  A    between atoms: _96  and  _97
REMARK   40  A    between atoms: _97  and  _98
REMARK   41  A    between atoms: _103  and  _105
REMARK   42  A    between atoms: _105  and  _106
REMARK   43  A    between atoms: _105  and  _108
REMARK   44  A    between atoms: _108  and  _109
REMARK   45  A    between atoms: _109  and  _110
REMARK   46  A    between atoms: _110  and  _111
REMARK   47  A    between atoms: _120  and  _122
REMARK   48  A    between atoms: _122  and  _123
REMARK   49  A    between atoms: _122  and  _125
REMARK   50  A    between atoms: _125  and  _126
REMARK   51  A    between atoms: _129  and  _131
REMARK   52  A    between atoms: _131  and  _132
REMARK   53  A    between atoms: _131  and  _134
REMARK   54  A    between atoms: _134  and  _135
REMARK   55  A    between atoms: _138  and  _140
REMARK   56  A    between atoms: _140  and  _141
REMARK   57  A    between atoms: _140  and  _143
REMARK   58  A    between atoms: _143  and  _144
REMARK   59  A    between atoms: _147  and  _149
REMARK   60  A    between atoms: _149  and  _150
REMARK   61  A    between atoms: _149  and  _152
REMARK   62  A    between atoms: _152  and  _153
REMARK   63  A    between atoms: _156  and  _158
REMARK   64  A    between atoms: _158  and  _159
REMARK   65  A    between atoms: _158  and  _161
REMARK   66  A    between atoms: _161  and  _162
REMARK   67  A    between atoms: _162  and  _163
REMARK   68  A    between atoms: _168  and  _170
REMARK   69  A    between atoms: _170  and  _171
REMARK   70  A    between atoms: _170  and  _173
REMARK   71  A    between atoms: _173  and  _174
REMARK   72  A    between atoms: _177  and  _179
REMARK   73  A    between atoms: _179  and  _180
REMARK   74  A    between atoms: _179  and  _182
REMARK   75  A    between atoms: _182  and  _183
REMARK   76  A    between atoms: _188  and  _190
REMARK   77  A    between atoms: _190  and  _191
REMARK   78  A    between atoms: _190  and  _193
REMARK   79  A    between atoms: _196  and  _198
REMARK   80  A    between atoms: _198  and  _199
REMARK   81  A    between atoms: _198  and  _201
REMARK   82  A    between atoms: _201  and  _202
REMARK   83  A    between atoms: _205  and  _207
REMARK   84  A    between atoms: _207  and  _208
REMARK   85  A    between atoms: _207  and  _210
REMARK   86  A    between atoms: _210  and  _211
REMARK   87  A    between atoms: _214  and  _216
REMARK   88  A    between atoms: _216  and  _217
REMARK   89  A    between atoms: _216  and  _219
REMARK   90  A    between atoms: _219  and  _220
REMARK   91  A    between atoms: _226  and  _228
REMARK   92  A    between atoms: _228  and  _229
REMARK   93  A    between atoms: _228  and  _231
REMARK   94  A    between atoms: _231  and  _232
REMARK   95  A    between atoms: _237  and  _239
REMARK   96  A    between atoms: _239  and  _240
REMARK   97  A    between atoms: _239  and  _242
REMARK   98  A    between atoms: _242  and  _243
REMARK   99  A    between atoms: _253  and  _255
REMARK  100  A    between atoms: _255  and  _256
REMARK  101  A    between atoms: _255  and  _258
REMARK  102  A    between atoms: _258  and  _259
REMARK  103  A    between atoms: _264  and  _265
REMARK  104  A    between atoms: _267  and  _269
REMARK  105  A    between atoms: _269  and  _270
REMARK  106  A    between atoms: _273  and  _275
REMARK  107  A    between atoms: _275  and  _276
REMARK  108  A    between atoms: _275  and  _278
REMARK  109  A    between atoms: _278  and  _279
REMARK  110  A    between atoms: _285  and  _287
REMARK  111  A    between atoms: _287  and  _288
REMARK  112  A    between atoms: _287  and  _290
REMARK  113  A    between atoms: _290  and  _291
REMARK  114  A    between atoms: _296  and  _298
REMARK  115  A    between atoms: _298  and  _299
REMARK  116  A    between atoms: _298  and  _301
REMARK  117  A    between atoms: _301  and  _302
REMARK  118  A    between atoms: _307  and  _309
REMARK  119  A    between atoms: _309  and  _310
REMARK  120  A    between atoms: _309  and  _312
REMARK  121  A    between atoms: _312  and  _313
REMARK  122  A    between atoms: _313  and  _314
REMARK  123  A    between atoms: _319  and  _321
REMARK  124  A    between atoms: _321  and  _322
REMARK  125  A    between atoms: _321  and  _324
REMARK  126  A    between atoms: _324  and  _325
REMARK  127  A    between atoms: _330  and  _331
REMARK  128  A    between atoms: _333  and  _335
REMARK  129  A    between atoms: _335  and  _336
REMARK  130  A    between atoms: _335  and  _338
REMARK  131  A    between atoms: _338  and  _339
REMARK  132  A    between atoms: _342  and  _344
REMARK  133  A    between atoms: _344  and  _345
REMARK  134  A    between atoms: _348  and  _350
REMARK  135  A    between atoms: _350  and  _351
REMARK  136  A    between atoms: _350  and  _353
REMARK  137  A    between atoms: _353  and  _354
REMARK  138  A    between atoms: _356  and  _358
REMARK  139  A    between atoms: _358  and  _359
REMARK  140  A    between atoms: _358  and  _361
REMARK  141  A    between atoms: _361  and  _362
REMARK  142  A    between atoms: _367  and  _368
REMARK  143  A    between atoms: _370  and  _372
REMARK  144  A    between atoms: _372  and  _373
REMARK  145  A    between atoms: _372  and  _375
REMARK  146  A    between atoms: _375  and  _376
REMARK  147  A    between atoms: _376  and  _377
REMARK  148  A    between atoms: _379  and  _381
REMARK  149  A    between atoms: _381  and  _382
REMARK  150  A    between atoms: _381  and  _384
REMARK  151  A    between atoms: _384  and  _385
REMARK  152  A    between atoms: _385  and  _386
REMARK  153  A    between atoms: _386  and  _387
REMARK  154  A    between atoms: _387  and  _388
REMARK  155  A    between atoms: _392  and  _394
REMARK  156  A    between atoms: _394  and  _395
REMARK  157  A    between atoms: _394  and  _397
REMARK  158  A    between atoms: _397  and  _398
REMARK  159  A    between atoms: _400  and  _402
REMARK  160  A    between atoms: _402  and  _403
REMARK  161  A    between atoms: _402  and  _405
REMARK  162  A    between atoms: _405  and  _406
REMARK  163  A    between atoms: _411  and  _412
REMARK  164  A    between atoms: _414  and  _416
REMARK  165  A    between atoms: _416  and  _417
REMARK  166  A    between atoms: _416  and  _419
REMARK  167  A    between atoms: _419  and  _420
REMARK  168  A    between atoms: _422  and  _424
REMARK  169  A    between atoms: _424  and  _425
REMARK  170  A    between atoms: _428  and  _430
REMARK  171  A    between atoms: _430  and  _431
REMARK  172  A    between atoms: _430  and  _433
REMARK  173  A    between atoms: _433  and  _434
REMARK  174  A    between atoms: _437  and  _439
REMARK  175  A    between atoms: _439  and  _440
REMARK  176  A    between atoms: _439  and  _442
REMARK  177  A    between atoms: _442  and  _443
REMARK  178  A    between atoms: _453  and  _455
REMARK  179  A    between atoms: _455  and  _456
REMARK  180  A    between atoms: _455  and  _458
REMARK  181  A    between atoms: _458  and  _459
REMARK  182  A    between atoms: _459  and  _460
REMARK  183  A    between atoms: _465  and  _467
REMARK  184  A    between atoms: _467  and  _468
REMARK  185  A    between atoms: _467  and  _470
REMARK  186  A    between atoms: _473  and  _475
REMARK  187  A    between atoms: _475  and  _476
REMARK  188  A    between atoms: _475  and  _478
REMARK  189  A    between atoms: _478  and  _479
REMARK  190  A    between atoms: _482  and  _484
REMARK  191  A    between atoms: _484  and  _485
REMARK  192  A    between atoms: _488  and  _490
REMARK  193  A    between atoms: _490  and  _491
REMARK  194  A    between atoms: _490  and  _493
REMARK  195  A    between atoms: _496  and  _498
REMARK  196  A    between atoms: _498  and  _499
REMARK  197  A    between atoms: _498  and  _501
REMARK  198  A    between atoms: _501  and  _502
REMARK  199  A    between atoms: _508  and  _510
REMARK  200  A    between atoms: _510  and  _511
REMARK  201  A    between atoms: _510  and  _513
REMARK  202  A    between atoms: _513  and  _514
REMARK  203  A    between atoms: _516  and  _518
REMARK  204  A    between atoms: _518  and  _519
REMARK  205  A    between atoms: _518  and  _521
REMARK  206  A    between atoms: _521  and  _522
REMARK  207  A    between atoms: _527  and  _529
REMARK  208  A    between atoms: _529  and  _530
REMARK  209  A    between atoms: _529  and  _532
REMARK  210  A    between atoms: _532  and  _533
REMARK  211  A    between atoms: _543  and  _545
REMARK  212  A    between atoms: _545  and  _546
REMARK  213  A    between atoms: _545  and  _548
REMARK  214  A    between atoms: _548  and  _549
REMARK  215  A    between atoms: _552  and  _554
REMARK  216  A    between atoms: _554  and  _555
REMARK  217  A    between atoms: _554  and  _557
REMARK  218  A    between atoms: _557  and  _558
REMARK  219  A    between atoms: _563  and  _564
REMARK  220  A    between atoms: _566  and  _568
REMARK  221  A    between atoms: _568  and  _569
REMARK  222  A    between atoms: _568  and  _571
REMARK  223  A    between atoms: _571  and  _572
REMARK  224  A    between atoms: _575  and  _577
REMARK  225  A    between atoms: _577  and  _578
REMARK  226  A    between atoms: _577  and  _580
REMARK  227  A    between atoms: _580  and  _581
REMARK  228  A    between atoms: _581  and  _582
REMARK  229  A    between atoms: _585  and  _587
REMARK  230  A    between atoms: _587  and  _588
REMARK  231  A    between atoms: _587  and  _590
REMARK  232  A    between atoms: _590  and  _591
REMARK  233  A    between atoms: _596  and  _598
REMARK  234  A    between atoms: _598  and  _599
REMARK  235  A    between atoms: _601  and  _603
REMARK  236  A    between atoms: _603  and  _604
REMARK  237  A    between atoms: _603  and  _606
REMARK  238  A    between atoms: _606  and  _607
REMARK  239  A    between atoms: _607  and  _608
REMARK  240  A    between atoms: _610  and  _612
REMARK  241  A    between atoms: _612  and  _613
REMARK  242  A    between atoms: _612  and  _615
REMARK  243  A    between atoms: _615  and  _616
REMARK  244  A    between atoms: _619  and  _621
REMARK  245  A    between atoms: _621  and  _622
REMARK  246  A    between atoms: _621  and  _624
REMARK  247  A    between atoms: _624  and  _625
REMARK  248  A    between atoms: _635  and  _637
REMARK  249  A    between atoms: _637  and  _638
REMARK  250  A    between atoms: _637  and  _640
REMARK  251  A    between atoms: _640  and  _641
REMARK  252  A    between atoms: _643  and  _645
REMARK  253  A    between atoms: _645  and  _646
REMARK  254  A    between atoms: _645  and  _648
REMARK  255  A    between atoms: _648  and  _649
REMARK  256  A    between atoms: _654  and  _656
REMARK  257  A    between atoms: _656  and  _657
REMARK  258  A    between atoms: _656  and  _659
REMARK  259  A    between atoms: _659  and  _660
REMARK  260  A    between atoms: _666  and  _668
REMARK  261  A    between atoms: _668  and  _669
REMARK  262  A    between atoms: _668  and  _671
REMARK  263  A    between atoms: _671  and  _672
REMARK  264  A    between atoms: _672  and  _673
REMARK  265  A    between atoms: _676  and  _678
REMARK  266  A    between atoms: _678  and  _679
REMARK  267  A    between atoms: _678  and  _681
REMARK  268  A    between atoms: _681  and  _682
REMARK  269  A    between atoms: _692  and  _694
REMARK  270  A    between atoms: _694  and  _695
REMARK  271  A    between atoms: _694  and  _697
REMARK  272  A    between atoms: _697  and  _698
REMARK  273  A    between atoms: _701  and  _703
REMARK  274  A    between atoms: _703  and  _704
REMARK  275  A    between atoms: _703  and  _706
REMARK  276  A    between atoms: _706  and  _707
REMARK  277  A    between atoms: _709  and  _711
REMARK  278  A    between atoms: _711  and  _712
REMARK  279  A    between atoms: _711  and  _714
REMARK  280  A    between atoms: _714  and  _715
REMARK  281  A    between atoms: _717  and  _719
REMARK  282  A    between atoms: _719  and  _720
REMARK  283  A    between atoms: _719  and  _722
REMARK  284  A    between atoms: _722  and  _723
REMARK                            x       y       z     vdW  Elec       q    Type
REMARK                         _______ _______ _______ _____ _____    ______ ____
ROOT
ATOM      1  C   ASP A   1     -17.692   0.621  45.838  0.00  0.00    +0.239 C 
ATOM      2  N   GLN A   2     -16.401   0.908  45.916  0.00  0.00    -0.298 N 
ATOM      3  H   GLN A   2     -15.709   0.132  45.917  0.00  0.00    +0.150 HD
ATOM      4  O   ASP A   1     -18.562   1.487  45.805  0.00  0.00    -0.274 OA
ENDROOT
BRANCH   1   5
ATOM      5  CA  ASP A   1     -18.065  -0.863  45.742  0.00  0.00    +0.156 C 
BRANCH   5   6
ATOM      6  N   ASP A   1     -17.534  -1.377  44.478  0.00  0.00    -0.238 NA
ATOM      7  H   ASP A   1     -16.516  -1.580  44.412  0.00  0.00    +0.142 HD
ENDBRANCH   5   6
BRANCH   5   8
ATOM      8  CB  ASP A   1     -17.527  -1.685  46.928  0.00  0.00    +0.140 C 
BRANCH   8   9
ATOM      9  CG  ASP A   1     -17.917  -1.105  48.298  0.00  0.00    +0.367 C 
ATOM     10  OD2 ASP A   1     -17.811  -1.839  49.299  0.00  0.00    -0.246 OA
ATOM     11  OD1 ASP A   1     -18.338   0.072  48.386  0.00  0.00    -0.246 OA
ENDBRANCH   8   9
ENDBRANCH   5   8
ENDBRANCH   1   5
BRANCH   2  12
ATOM     12  CA  GLN A   2     -15.923   2.291  46.001  0.00  0.00    +0.137 C 
BRANCH  12  13
ATOM     13  C   GLN A   2     -15.908   3.006  44.636  0.00  0.00    +0.227 C 
ATOM     14  O   GLN A   2     -16.045   4.229  44.564  0.00  0.00    -0.286 OA
ENDBRANCH  12  13
BRANCH  12  15
ATOM     15  CB  GLN A   2     -14.526   2.340  46.619  0.00  0.00    +0.037 C 
BRANCH  15  16
ATOM     16  CG  GLN A   2     -14.468   1.951  48.091  0.00  0.00    +0.087 C 
BRANCH  16  17
ATOM     17  CD  GLN A   2     -13.107   2.246  48.717  0.00  0.00    +0.219 C 
ATOM     18  NE2 GLN A   2     -12.798   1.565  49.811  0.00  0.00    -0.329 N 
ATOM     19 HE21 GLN A   2     -11.884   1.724  50.282  0.00  0.00    +0.145 HD
ATOM     20 HE22 GLN A   2     -13.469   0.872  50.199  0.00  0.00    +0.145 HD
ATOM     21  OE1 GLN A   2     -12.345   3.078  48.219  0.00  0.00    -0.275 OA
ENDBRANCH  16  17
ENDBRANCH  15  16
ENDBRANCH  12  15
ENDBRANCH   2  12
TORSDOF 9
REMARK  Name = ../refined-set-2016/4qlk/4qlk_pocket.pdb
REMARK  284 active torsions:
REMARK  status: ('A' for Active; 'I' for Inactive)
REMARK    1  A    between atoms: _1  and  _3
REMARK    2  A    between atoms: _3  and  _4
REMARK    3  A    between atoms: _3  and  _6
REMARK    4  A    between atoms: _9  and  _11
REMARK    5  A    between atoms: _11  and  _12
REMARK    6  A    between atoms: _11  and  _14
REMARK    7  A    between atoms: _14  and  _15
REMARK    8  A    between atoms: _18  and  _20
REMARK    9  A    between atoms: _20  and  _21
REMARK   10  A    between atoms: _20  and  _23
REMARK   11  A    between atoms: _23  and  _24
REMARK   12  A    between atoms: _26  and  _28
REMARK   13  A    between atoms: _28  and  _29
REMARK   14  A    between atoms: _28  and  _31
REMARK   15  A    between atoms: _31  and  _32
REMARK   16  A    between atoms: _32  and  _33
REMARK   17  A    between atoms: _38  and  _40
REMARK   18  A    between atoms: _40  and  _41
REMARK   19  A    between atoms: _40  and  _43
REMARK   20  A    between atoms: _43  and  _44
REMARK   21  A    between atoms: _44  and  _45
REMARK   22  A    between atoms: _45  and  _46
REMARK   23  A    between atoms: _55  and  _57
REMARK   24  A    between atoms: _57  and  _58
REMARK   25  A    between atoms: _57  and  _60
REMARK   26  A    between atoms: _60  and  _61
REMARK   27  A    between atoms: _66  and  _68
REMARK   28  A    between atoms: _68  and  _69
REMARK   29  A    between atoms: _68  and  _71
REMARK   30  A    between atoms: _71  and  _72
REMARK   31  A    between atoms: _77  and  _78
REMARK   32  A    between atoms: _80  and  _82
REMARK   33  A    between atoms: _82  and  _83
REMARK   34  A    between atoms: _82  and  _85
REMARK   35  A    between atoms: _85  and  _86
REMARK   36  A    between atoms: _91  and  _93
REMARK   37  A    between atoms: _93  and  _94
REMARK   38  A    between atoms: _93  and  _96
REMARK   39  A    between atoms: _96  and  _97
REMARK   40  A    between atoms: _97  and  _98
REMARK   41  A    between atoms: _103  and  _105
REMARK   42  A    between atoms: _105  and  _106
REMARK   43  A    between atoms: _105  and  _108
REMARK   44  A    between atoms: _108  and  _109
REMARK   45  A    between atoms: _109  and  _110
REMARK   46  A    between atoms: _110  and  _111
REMARK   47  A    between atoms: _120  and  _122
REMARK   48  A    between atoms: _122  and  _123
REMARK   49  A    between atoms: _122  and  _125
REMARK   50  A    between atoms: _125  and  _126
REMARK   51  A    between atoms: _129  and  _131
REMARK   52  A    between atoms: _131  and  _132
REMARK   53  A    between atoms: _131  and  _134
REMARK   54  A    between atoms: _134  and  _135
REMARK   55  A    between atoms: _138  and  _140
REMARK   56  A    between atoms: _140  and  _141
REMARK   57  A    between atoms: _140  and  _143
REMARK   58  A    between atoms: _143  and  _144
REMARK   59  A    between atoms: _147  and  _149
REMARK   60  A    between atoms: _149  and  _150
REMARK   61  A    between atoms: _149  and  _152
REMARK   62  A    between atoms: _152  and  _153
REMARK   63  A    between atoms: _156  and  _158
REMARK   64  A    between atoms: _158  and  _159
REMARK   65  A    between atoms: _158  and  _161
REMARK   66  A    between atoms: _161  and  _162
REMARK   67  A    between atoms: _162  and  _163
REMARK   68  A    between atoms: _168  and  _170
REMARK   69  A    between atoms: _170  and  _171
REMARK   70  A    between atoms: _170  and  _173
REMARK   71  A    between atoms: _173  and  _174
REMARK   72  A    between atoms: _177  and  _179
REMARK   73  A    between atoms: _179  and  _180
REMARK   74  A    between atoms: _179  and  _182
REMARK   75  A    between atoms: _182  and  _183
REMARK   76  A    between atoms: _188  and  _190
REMARK   77  A    between atoms: _190  and  _191
REMARK   78  A    between atoms: _190  and  _193
REMARK   79  A    between atoms: _196  and  _198
REMARK   80  A    between atoms: _198  and  _199
REMARK   81  A    between atoms: _198  and  _201
REMARK   82  A    between atoms: _201  and  _202
REMARK   83  A    between atoms: _205  and  _207
REMARK   84  A    between atoms: _207  and  _208
REMARK   85  A    between atoms: _207  and  _210
REMARK   86  A    between atoms: _210  and  _211
REMARK   87  A    between atoms: _214  and  _216
REMARK   88  A    between atoms: _216  and  _217
REMARK   89  A    between atoms: _216  and  _219
REMARK   90  A    between atoms: _219  and  _220
REMARK   91  A    between atoms: _226  and  _228
REMARK   92  A    between atoms: _228  and  _229
REMARK   93  A    between atoms: _228  and  _231
REMARK   94  A    between atoms: _231  and  _232
REMARK   95  A    between atoms: _237  and  _239
REMARK   96  A    between atoms: _239  and  _240
REMARK   97  A    between atoms: _239  and  _242
REMARK   98  A    between atoms: _242  and  _243
REMARK   99  A    between atoms: _253  and  _255
REMARK  100  A    between atoms: _255  and  _256
REMARK  101  A    between atoms: _255  and  _258
REMARK  102  A    between atoms: _258  and  _259
REMARK  103  A    between atoms: _264  and  _265
REMARK  104  A    between atoms: _267  and  _269
REMARK  105  A    between atoms: _269  and  _270
REMARK  106  A    between atoms: _273  and  _275
REMARK  107  A    between atoms: _275  and  _276
REMARK  108  A    between atoms: _275  and  _278
REMARK  109  A    between atoms: _278  and  _279
REMARK  110  A    between atoms: _285  and  _287
REMARK  111  A    between atoms: _287  and  _288
REMARK  112  A    between atoms: _287  and  _290
REMARK  113  A    between atoms: _290  and  _291
REMARK  114  A    between atoms: _296  and  _298
REMARK  115  A    between atoms: _298  and  _299
REMARK  116  A    between atoms: _298  and  _301
REMARK  117  A    between atoms: _301  and  _302
REMARK  118  A    between atoms: _307  and  _309
REMARK  119  A    between atoms: _309  and  _310
REMARK  120  A    between atoms: _309  and  _312
REMARK  121  A    between atoms: _312  and  _313
REMARK  122  A    between atoms: _313  and  _314
REMARK  123  A    between atoms: _319  and  _321
REMARK  124  A    between atoms: _321  and  _322
REMARK  125  A    between atoms: _321  and  _324
REMARK  126  A    between atoms: _324  and  _325
REMARK  127  A    between atoms: _330  and  _331
REMARK  128  A    between atoms: _333  and  _335
REMARK  129  A    between atoms: _335  and  _336
REMARK  130  A    between atoms: _335  and  _338
REMARK  131  A    between atoms: _338  and  _339
REMARK  132  A    between atoms: _342  and  _344
REMARK  133  A    between atoms: _344  and  _345
REMARK  134  A    between atoms: _348  and  _350
REMARK  135  A    between atoms: _350  and  _351
REMARK  136  A    between atoms: _350  and  _353
REMARK  137  A    between atoms: _353  and  _354
REMARK  138  A    between atoms: _356  and  _358
REMARK  139  A    between atoms: _358  and  _359
REMARK  140  A    between atoms: _358  and  _361
REMARK  141  A    between atoms: _361  and  _362
REMARK  142  A    between atoms: _367  and  _368
REMARK  143  A    between atoms: _370  and  _372
REMARK  144  A    between atoms: _372  and  _373
REMARK  145  A    between atoms: _372  and  _375
REMARK  146  A    between atoms: _375  and  _376
REMARK  147  A    between atoms: _376  and  _377
REMARK  148  A    between atoms: _379  and  _381
REMARK  149  A    between atoms: _381  and  _382
REMARK  150  A    between atoms: _381  and  _384
REMARK  151  A    between atoms: _384  and  _385
REMARK  152  A    between atoms: _385  and  _386
REMARK  153  A    between atoms: _386  and  _387
REMARK  154  A    between atoms: _387  and  _388
REMARK  155  A    between atoms: _392  and  _394
REMARK  156  A    between atoms: _394  and  _395
REMARK  157  A    between atoms: _394  and  _397
REMARK  158  A    between atoms: _397  and  _398
REMARK  159  A    between atoms: _400  and  _402
REMARK  160  A    between atoms: _402  and  _403
REMARK  161  A    between atoms: _402  and  _405
REMARK  162  A    between atoms: _405  and  _406
REMARK  163  A    between atoms: _411  and  _412
REMARK  164  A    between atoms: _414  and  _416
REMARK  165  A    between atoms: _416  and  _417
REMARK  166  A    between atoms: _416  and  _419
REMARK  167  A    between atoms: _419  and  _420
REMARK  168  A    between atoms: _422  and  _424
REMARK  169  A    between atoms: _424  and  _425
REMARK  170  A    between atoms: _428  and  _430
REMARK  171  A    between atoms: _430  and  _431
REMARK  172  A    between atoms: _430  and  _433
REMARK  173  A    between atoms: _433  and  _434
REMARK  174  A    between atoms: _437  and  _439
REMARK  175  A    between atoms: _439  and  _440
REMARK  176  A    between atoms: _439  and  _442
REMARK  177  A    between atoms: _442  and  _443
REMARK  178  A    between atoms: _453  and  _455
REMARK  179  A    between atoms: _455  and  _456
REMARK  180  A    between atoms: _455  and  _458
REMARK  181  A    between atoms: _458  and  _459
REMARK  182  A    between atoms: _459  and  _460
REMARK  183  A    between atoms: _465  and  _467
REMARK  184  A    between atoms: _467  and  _468
REMARK  185  A    between atoms: _467  and  _470
REMARK  186  A    between atoms: _473  and  _475
REMARK  187  A    between atoms: _475  and  _476
REMARK  188  A    between atoms: _475  and  _478
REMARK  189  A    between atoms: _478  and  _479
REMARK  190  A    between atoms: _482  and  _484
REMARK  191  A    between atoms: _484  and  _485
REMARK  192  A    between atoms: _488  and  _490
REMARK  193  A    between atoms: _490  and  _491
REMARK  194  A    between atoms: _490  and  _493
REMARK  195  A    between atoms: _496  and  _498
REMARK  196  A    between atoms: _498  and  _499
REMARK  197  A    between atoms: _498  and  _501
REMARK  198  A    between atoms: _501  and  _502
REMARK  199  A    between atoms: _508  and  _510
REMARK  200  A    between atoms: _510  and  _511
REMARK  201  A    between atoms: _510  and  _513
REMARK  202  A    between atoms: _513  and  _514
REMARK  203  A    between atoms: _516  and  _518
REMARK  204  A    between atoms: _518  and  _519
REMARK  205  A    between atoms: _518  and  _521
REMARK  206  A    between atoms: _521  and  _522
REMARK  207  A    between atoms: _527  and  _529
REMARK  208  A    between atoms: _529  and  _530
REMARK  209  A    between atoms: _529  and  _532
REMARK  210  A    between atoms: _532  and  _533
REMARK  211  A    between atoms: _543  and  _545
REMARK  212  A    between atoms: _545  and  _546
REMARK  213  A    between atoms: _545  and  _548
REMARK  214  A    between atoms: _548  and  _549
REMARK  215  A    between atoms: _552  and  _554
REMARK  216  A    between atoms: _554  and  _555
REMARK  217  A    between atoms: _554  and  _557
REMARK  218  A    between atoms: _557  and  _558
REMARK  219  A    between atoms: _563  and  _564
REMARK  220  A    between atoms: _566  and  _568
REMARK  221  A    between atoms: _568  and  _569
REMARK  222  A    between atoms: _568  and  _571
REMARK  223  A    between atoms: _571  and  _572
REMARK  224  A    between atoms: _575  and  _577
REMARK  225  A    between atoms: _577  and  _578
REMARK  226  A    between atoms: _577  and  _580
REMARK  227  A    between atoms: _580  and  _581
REMARK  228  A    between atoms: _581  and  _582
REMARK  229  A    between atoms: _585  and  _587
REMARK  230  A    between atoms: _587  and  _588
REMARK  231  A    between atoms: _587  and  _590
REMARK  232  A    between atoms: _590  and  _591
REMARK  233  A    between atoms: _596  and  _598
REMARK  234  A    between atoms: _598  and  _599
REMARK  235  A    between atoms: _601  and  _603
REMARK  236  A    between atoms: _603  and  _604
REMARK  237  A    between atoms: _603  and  _606
REMARK  238  A    between atoms: _606  and  _607
REMARK  239  A    between atoms: _607  and  _608
REMARK  240  A    between atoms: _610  and  _612
REMARK  241  A    between atoms: _612  and  _613
REMARK  242  A    between atoms: _612  and  _615
REMARK  243  A    between atoms: _615  and  _616
REMARK  244  A    between atoms: _619  and  _621
REMARK  245  A    between atoms: _621  and  _622
REMARK  246  A    between atoms: _621  and  _624
REMARK  247  A    between atoms: _624  and  _625
REMARK  248  A    between atoms: _635  and  _637
REMARK  249  A    between atoms: _637  and  _638
REMARK  250  A    between atoms: _637  and  _640
REMARK  251  A    between atoms: _640  and  _641
REMARK  252  A    between atoms: _643  and  _645
REMARK  253  A    between atoms: _645  and  _646
REMARK  254  A    between atoms: _645  and  _648
REMARK  255  A    between atoms: _648  and  _649
REMARK  256  A    between atoms: _654  and  _656
REMARK  257  A    between atoms: _656  and  _657
REMARK  258  A    between atoms: _656  and  _659
REMARK  259  A    between atoms: _659  and  _660
REMARK  260  A    between atoms: _666  and  _668
REMARK  261  A    between atoms: _668  and  _669
REMARK  262  A    between atoms: _668  and  _671
REMARK  263  A    between atoms: _671  and  _672
REMARK  264  A    between atoms: _672  and  _673
REMARK  265  A    between atoms: _676  and  _678
REMARK  266  A    between atoms: _678  and  _679
REMARK  267  A    between atoms: _678  and  _681
REMARK  268  A    between atoms: _681  and  _682
REMARK  269  A    between atoms: _692  and  _694
REMARK  270  A    between atoms: _694  and  _695
REMARK  271  A    between atoms: _694  and  _697
REMARK  272  A    between atoms: _697  and  _698
REMARK  273  A    between atoms: _701  and  _703
REMARK  274  A    between atoms: _703  and  _704
REMARK  275  A    between atoms: _703  and  _706
REMARK  276  A    between atoms: _706  and  _707
REMARK  277  A    between atoms: _709  and  _711
REMARK  278  A    between atoms: _711  and  _712
REMARK  279  A    between atoms: _711  and  _714
REMARK  280  A    between atoms: _714  and  _715
REMARK  281  A    between atoms: _717  and  _719
REMARK  282  A    between atoms: _719  and  _720
REMARK  283  A    between atoms: _719  and  _722
REMARK  284  A    between atoms: _722  and  _723
REMARK                            x       y       z     vdW  Elec       q    Type
REMARK                         _______ _______ _______ _____ _____    ______ ____
ROOT
ATOM      1  C   THR A   1     -11.090   3.438  41.519  0.00  0.00    +0.241 C 
ATOM      2  O   THR A   1     -10.058   4.024  41.183  0.00  0.00    -0.274 OA
ATOM      3  N   ASN A   2     -11.370   2.194  41.142  0.00  0.00    -0.298 N 
ATOM      4  H   ASN A   2     -12.165   1.699  41.594  0.00  0.00    +0.150 HD
ENDROOT
BRANCH   1   5
ATOM      5  CA  THR A   1     -12.097   4.131  42.435  0.00  0.00    +0.172 C 
BRANCH   5   6
ATOM      6  N   THR A   1     -13.349   3.385  42.598  0.00  0.00    -0.236 NA
ATOM      7  H   THR A   1     -13.369   2.588  43.265  0.00  0.00    +0.142 HD
ENDBRANCH   5   6
BRANCH   5   8
ATOM      8  CB  THR A   1     -11.393   4.353  43.780  0.00  0.00    +0.135 C 
ATOM      9  CG2 THR A   1     -12.229   5.260  44.693  0.00  0.00    +0.034 C 
BRANCH   8  10
ATOM     10  OG1 THR A   1     -11.167   3.086  44.405  0.00  0.00    -0.383 OA
ATOM     11  HG1 THR A   1     -10.713   3.224  45.274  0.00  0.00    +0.210 HD
ENDBRANCH   8  10
ENDBRANCH   5   8
ENDBRANCH   1   5
BRANCH   3  12
ATOM     12  CA  ASN A   2     -10.597   1.497  40.112  0.00  0.00    +0.146 C 
BRANCH  12  13
ATOM     13  C   ASN A   2     -11.534   1.171  38.949  0.00  0.00    +0.227 C 
ATOM     14  O   ASN A   2     -12.744   1.096  39.147  0.00  0.00    -0.286 OA
ENDBRANCH  12  13
BRANCH  12  15
ATOM     15  CB  ASN A   2     -10.016   0.182  40.652  0.00  0.00    +0.112 C 
BRANCH  15  16
ATOM     16  CG  ASN A   2      -8.697   0.358  41.409  0.00  0.00    +0.222 C 
ATOM     17  OD1 ASN A   2      -8.347   1.441  41.871  0.00  0.00    -0.275 OA
ATOM     18  ND2 ASN A   2      -7.973  -0.735  41.554  0.00  0.00    -0.329 N 
ATOM     19 HD21 ASN A   2      -7.073  -0.697  42.074  0.00  0.00    +0.145 HD
ATOM     20 HD22 ASN A   2      -8.302  -1.634  41.149  0.00  0.00    +0.145 HD
ENDBRANCH  15  16
ENDBRANCH  12  15
ENDBRANCH   3  12
TORSDOF 8
REMARK  Name = ../refined-set-2016/4qlk/4qlk_pocket.pdb
REMARK  284 active torsions:
REMARK  status: ('A' for Active; 'I' for Inactive)
REMARK    1  A    between atoms: _1  and  _3
REMARK    2  A    between atoms: _3  and  _4
REMARK    3  A    between atoms: _3  and  _6
REMARK    4  A    between atoms: _9  and  _11
REMARK    5  A    between atoms: _11  and  _12
REMARK    6  A    between atoms: _11  and  _14
REMARK    7  A    between atoms: _14  and  _15
REMARK    8  A    between atoms: _18  and  _20
REMARK    9  A    between atoms: _20  and  _21
REMARK   10  A    between atoms: _20  and  _23
REMARK   11  A    between atoms: _23  and  _24
REMARK   12  A    between atoms: _26  and  _28
REMARK   13  A    between atoms: _28  and  _29
REMARK   14  A    between atoms: _28  and  _31
REMARK   15  A    between atoms: _31  and  _32
REMARK   16  A    between atoms: _32  and  _33
REMARK   17  A    between atoms: _38  and  _40
REMARK   18  A    between atoms: _40  and  _41
REMARK   19  A    between atoms: _40  and  _43
REMARK   20  A    between atoms: _43  and  _44
REMARK   21  A    between atoms: _44  and  _45
REMARK   22  A    between atoms: _45  and  _46
REMARK   23  A    between atoms: _55  and  _57
REMARK   24  A    between atoms: _57  and  _58
REMARK   25  A    between atoms: _57  and  _60
REMARK   26  A    between atoms: _60  and  _61
REMARK   27  A    between atoms: _66  and  _68
REMARK   28  A    between atoms: _68  and  _69
REMARK   29  A    between atoms: _68  and  _71
REMARK   30  A    between atoms: _71  and  _72
REMARK   31  A    between atoms: _77  and  _78
REMARK   32  A    between atoms: _80  and  _82
REMARK   33  A    between atoms: _82  and  _83
REMARK   34  A    between atoms: _82  and  _85
REMARK   35  A    between atoms: _85  and  _86
REMARK   36  A    between atoms: _91  and  _93
REMARK   37  A    between atoms: _93  and  _94
REMARK   38  A    between atoms: _93  and  _96
REMARK   39  A    between atoms: _96  and  _97
REMARK   40  A    between atoms: _97  and  _98
REMARK   41  A    between atoms: _103  and  _105
REMARK   42  A    between atoms: _105  and  _106
REMARK   43  A    between atoms: _105  and  _108
REMARK   44  A    between atoms: _108  and  _109
REMARK   45  A    between atoms: _109  and  _110
REMARK   46  A    between atoms: _110  and  _111
REMARK   47  A    between atoms: _120  and  _122
REMARK   48  A    between atoms: _122  and  _123
REMARK   49  A    between atoms: _122  and  _125
REMARK   50  A    between atoms: _125  and  _126
REMARK   51  A    between atoms: _129  and  _131
REMARK   52  A    between atoms: _131  and  _132
REMARK   53  A    between atoms: _131  and  _134
REMARK   54  A    between atoms: _134  and  _135
REMARK   55  A    between atoms: _138  and  _140
REMARK   56  A    between atoms: _140  and  _141
REMARK   57  A    between atoms: _140  and  _143
REMARK   58  A    between atoms: _143  and  _144
REMARK   59  A    between atoms: _147  and  _149
REMARK   60  A    between atoms: _149  and  _150
REMARK   61  A    between atoms: _149  and  _152
REMARK   62  A    between atoms: _152  and  _153
REMARK   63  A    between atoms: _156  and  _158
REMARK   64  A    between atoms: _158  and  _159
REMARK   65  A    between atoms: _158  and  _161
REMARK   66  A    between atoms: _161  and  _162
REMARK   67  A    between atoms: _162  and  _163
REMARK   68  A    between atoms: _168  and  _170
REMARK   69  A    between atoms: _170  and  _171
REMARK   70  A    between atoms: _170  and  _173
REMARK   71  A    between atoms: _173  and  _174
REMARK   72  A    between atoms: _177  and  _179
REMARK   73  A    between atoms: _179  and  _180
REMARK   74  A    between atoms: _179  and  _182
REMARK   75  A    between atoms: _182  and  _183
REMARK   76  A    between atoms: _188  and  _190
REMARK   77  A    between atoms: _190  and  _191
REMARK   78  A    between atoms: _190  and  _193
REMARK   79  A    between atoms: _196  and  _198
REMARK   80  A    between atoms: _198  and  _199
REMARK   81  A    between atoms: _198  and  _201
REMARK   82  A    between atoms: _201  and  _202
REMARK   83  A    between atoms: _205  and  _207
REMARK   84  A    between atoms: _207  and  _208
REMARK   85  A    between atoms: _207  and  _210
REMARK   86  A    between atoms: _210  and  _211
REMARK   87  A    between atoms: _214  and  _216
REMARK   88  A    between atoms: _216  and  _217
REMARK   89  A    between atoms: _216  and  _219
REMARK   90  A    between atoms: _219  and  _220
REMARK   91  A    between atoms: _226  and  _228
REMARK   92  A    between atoms: _228  and  _229
REMARK   93  A    between atoms: _228  and  _231
REMARK   94  A    between atoms: _231  and  _232
REMARK   95  A    between atoms: _237  and  _239
REMARK   96  A    between atoms: _239  and  _240
REMARK   97  A    between atoms: _239  and  _242
REMARK   98  A    between atoms: _242  and  _243
REMARK   99  A    between atoms: _253  and  _255
REMARK  100  A    between atoms: _255  and  _256
REMARK  101  A    between atoms: _255  and  _258
REMARK  102  A    between atoms: _258  and  _259
REMARK  103  A    between atoms: _264  and  _265
REMARK  104  A    between atoms: _267  and  _269
REMARK  105  A    between atoms: _269  and  _270
REMARK  106  A    between atoms: _273  and  _275
REMARK  107  A    between atoms: _275  and  _276
REMARK  108  A    between atoms: _275  and  _278
REMARK  109  A    between atoms: _278  and  _279
REMARK  110  A    between atoms: _285  and  _287
REMARK  111  A    between atoms: _287  and  _288
REMARK  112  A    between atoms: _287  and  _290
REMARK  113  A    between atoms: _290  and  _291
REMARK  114  A    between atoms: _296  and  _298
REMARK  115  A    between atoms: _298  and  _299
REMARK  116  A    between atoms: _298  and  _301
REMARK  117  A    between atoms: _301  and  _302
REMARK  118  A    between atoms: _307  and  _309
REMARK  119  A    between atoms: _309  and  _310
REMARK  120  A    between atoms: _309  and  _312
REMARK  121  A    between atoms: _312  and  _313
REMARK  122  A    between atoms: _313  and  _314
REMARK  123  A    between atoms: _319  and  _321
REMARK  124  A    between atoms: _321  and  _322
REMARK  125  A    between atoms: _321  and  _324
REMARK  126  A    between atoms: _324  and  _325
REMARK  127  A    between atoms: _330  and  _331
REMARK  128  A    between atoms: _333  and  _335
REMARK  129  A    between atoms: _335  and  _336
REMARK  130  A    between atoms: _335  and  _338
REMARK  131  A    between atoms: _338  and  _339
REMARK  132  A    between atoms: _342  and  _344
REMARK  133  A    between atoms: _344  and  _345
REMARK  134  A    between atoms: _348  and  _350
REMARK  135  A    between atoms: _350  and  _351
REMARK  136  A    between atoms: _350  and  _353
REMARK  137  A    between atoms: _353  and  _354
REMARK  138  A    between atoms: _356  and  _358
REMARK  139  A    between atoms: _358  and  _359
REMARK  140  A    between atoms: _358  and  _361
REMARK  141  A    between atoms: _361  and  _362
REMARK  142  A    between atoms: _367  and  _368
REMARK  143  A    between atoms: _370  and  _372
REMARK  144  A    between atoms: _372  and  _373
REMARK  145  A    between atoms: _372  and  _375
REMARK  146  A    between atoms: _375  and  _376
REMARK  147  A    between atoms: _376  and  _377
REMARK  148  A    between atoms: _379  and  _381
REMARK  149  A    between atoms: _381  and  _382
REMARK  150  A    between atoms: _381  and  _384
REMARK  151  A    between atoms: _384  and  _385
REMARK  152  A    between atoms: _385  and  _386
REMARK  153  A    between atoms: _386  and  _387
REMARK  154  A    between atoms: _387  and  _388
REMARK  155  A    between atoms: _392  and  _394
REMARK  156  A    between atoms: _394  and  _395
REMARK  157  A    between atoms: _394  and  _397
REMARK  158  A    between atoms: _397  and  _398
REMARK  159  A    between atoms: _400  and  _402
REMARK  160  A    between atoms: _402  and  _403
REMARK  161  A    between atoms: _402  and  _405
REMARK  162  A    between atoms: _405  and  _406
REMARK  163  A    between atoms: _411  and  _412
REMARK  164  A    between atoms: _414  and  _416
REMARK  165  A    between atoms: _416  and  _417
REMARK  166  A    between atoms: _416  and  _419
REMARK  167  A    between atoms: _419  and  _420
REMARK  168  A    between atoms: _422  and  _424
REMARK  169  A    between atoms: _424  and  _425
REMARK  170  A    between atoms: _428  and  _430
REMARK  171  A    between atoms: _430  and  _431
REMARK  172  A    between atoms: _430  and  _433
REMARK  173  A    between atoms: _433  and  _434
REMARK  174  A    between atoms: _437  and  _439
REMARK  175  A    between atoms: _439  and  _440
REMARK  176  A    between atoms: _439  and  _442
REMARK  177  A    between atoms: _442  and  _443
REMARK  178  A    between atoms: _453  and  _455
REMARK  179  A    between atoms: _455  and  _456
REMARK  180  A    between atoms: _455  and  _458
REMARK  181  A    between atoms: _458  and  _459
REMARK  182  A    between atoms: _459  and  _460
REMARK  183  A    between atoms: _465  and  _467
REMARK  184  A    between atoms: _467  and  _468
REMARK  185  A    between atoms: _467  and  _470
REMARK  186  A    between atoms: _473  and  _475
REMARK  187  A    between atoms: _475  and  _476
REMARK  188  A    between atoms: _475  and  _478
REMARK  189  A    between atoms: _478  and  _479
REMARK  190  A    between atoms: _482  and  _484
REMARK  191  A    between atoms: _484  and  _485
REMARK  192  A    between atoms: _488  and  _490
REMARK  193  A    between atoms: _490  and  _491
REMARK  194  A    between atoms: _490  and  _493
REMARK  195  A    between atoms: _496  and  _498
REMARK  196  A    between atoms: _498  and  _499
REMARK  197  A    between atoms: _498  and  _501
REMARK  198  A    between atoms: _501  and  _502
REMARK  199  A    between atoms: _508  and  _510
REMARK  200  A    between atoms: _510  and  _511
REMARK  201  A    between atoms: _510  and  _513
REMARK  202  A    between atoms: _513  and  _514
REMARK  203  A    between atoms: _516  and  _518
REMARK  204  A    between atoms: _518  and  _519
REMARK  205  A    between atoms: _518  and  _521
REMARK  206  A    between atoms: _521  and  _522
REMARK  207  A    between atoms: _527  and  _529
REMARK  208  A    between atoms: _529  and  _530
REMARK  209  A    between atoms: _529  and  _532
REMARK  210  A    between atoms: _532  and  _533
REMARK  211  A    between atoms: _543  and  _545
REMARK  212  A    between atoms: _545  and  _546
REMARK  213  A    between atoms: _545  and  _548
REMARK  214  A    between atoms: _548  and  _549
REMARK  215  A    between atoms: _552  and  _554
REMARK  216  A    between atoms: _554  and  _555
REMARK  217  A    between atoms: _554  and  _557
REMARK  218  A    between atoms: _557  and  _558
REMARK  219  A    between atoms: _563  and  _564
REMARK  220  A    between atoms: _566  and  _568
REMARK  221  A    between atoms: _568  and  _569
REMARK  222  A    between atoms: _568  and  _571
REMARK  223  A    between atoms: _571  and  _572
REMARK  224  A    between atoms: _575  and  _577
REMARK  225  A    between atoms: _577  and  _578
REMARK  226  A    between atoms: _577  and  _580
REMARK  227  A    between atoms: _580  and  _581
REMARK  228  A    between atoms: _581  and  _582
REMARK  229  A    between atoms: _585  and  _587
REMARK  230  A    between atoms: _587  and  _588
REMARK  231  A    between atoms: _587  and  _590
REMARK  232  A    between atoms: _590  and  _591
REMARK  233  A    between atoms: _596  and  _598
REMARK  234  A    between atoms: _598  and  _599
REMARK  235  A    between atoms: _601  and  _603
REMARK  236  A    between atoms: _603  and  _604
REMARK  237  A    between atoms: _603  and  _606
REMARK  238  A    between atoms: _606  and  _607
REMARK  239  A    between atoms: _607  and  _608
REMARK  240  A    between atoms: _610  and  _612
REMARK  241  A    between atoms: _612  and  _613
REMARK  242  A    between atoms: _612  and  _615
REMARK  243  A    between atoms: _615  and  _616
REMARK  244  A    between atoms: _619  and  _621
REMARK  245  A    between atoms: _621  and  _622
REMARK  246  A    between atoms: _621  and  _624
REMARK  247  A    between atoms: _624  and  _625
REMARK  248  A    between atoms: _635  and  _637
REMARK  249  A    between atoms: _637  and  _638
REMARK  250  A    between atoms: _637  and  _640
REMARK  251  A    between atoms: _640  and  _641
REMARK  252  A    between atoms: _643  and  _645
REMARK  253  A    between atoms: _645  and  _646
REMARK  254  A    between atoms: _645  and  _648
REMARK  255  A    between atoms: _648  and  _649
REMARK  256  A    between atoms: _654  and  _656
REMARK  257  A    between atoms: _656  and  _657
REMARK  258  A    between atoms: _656  and  _659
REMARK  259  A    between atoms: _659  and  _660
REMARK  260  A    between atoms: _666  and  _668
REMARK  261  A    between atoms: _668  and  _669
REMARK  262  A    between atoms: _668  and  _671
REMARK  263  A    between atoms: _671  and  _672
REMARK  264  A    between atoms: _672  and  _673
REMARK  265  A    between atoms: _676  and  _678
REMARK  266  A    between atoms: _678  and  _679
REMARK  267  A    between atoms: _678  and  _681
REMARK  268  A    between atoms: _681  and  _682
REMARK  269  A    between atoms: _692  and  _694
REMARK  270  A    between atoms: _694  and  _695
REMARK  271  A    between atoms: _694  and  _697
REMARK  272  A    between atoms: _697  and  _698
REMARK  273  A    between atoms: _701  and  _703
REMARK  274  A    between atoms: _703  and  _704
REMARK  275  A    between atoms: _703  and  _706
REMARK  276  A    between atoms: _706  and  _707
REMARK  277  A    between atoms: _709  and  _711
REMARK  278  A    between atoms: _711  and  _712
REMARK  279  A    between atoms: _711  and  _714
REMARK  280  A    between atoms: _714  and  _715
REMARK  281  A    between atoms: _717  and  _719
REMARK  282  A    between atoms: _719  and  _720
REMARK  283  A    between atoms: _719  and  _722
REMARK  284  A    between atoms: _722  and  _723
REMARK                            x       y       z     vdW  Elec       q    Type
REMARK                         _______ _______ _______ _____ _____    ______ ____
ROOT
ATOM      1  C   PHE A   4      -4.308 -10.154  54.182  0.00  0.00    +0.241 C 
ATOM      2  N   ASN A   5      -4.938  -9.144  54.757  0.00  0.00    -0.297 N 
ATOM      3  H   ASN A   5      -5.886  -8.871  54.429  0.00  0.00    +0.150 HD
ATOM      4  O   PHE A   4      -3.095 -10.353  54.295  0.00  0.00    -0.273 OA
ENDROOT
BRANCH   2   5
ATOM      5  CA  ASN A   5      -4.310  -8.414  55.846  0.00  0.00    +0.158 C 
BRANCH   5   6
ATOM      6  C   ASN A   5      -4.915  -8.881  57.170  0.00  0.00    +0.241 C 
ATOM      7  N   TRP A   6      -4.095  -8.882  58.206  0.00  0.00    -0.297 N 
ATOM      8  H   TRP A   6      -3.146  -8.467  58.110  0.00  0.00    +0.150 HD
ATOM      9  O   ASN A   5      -6.093  -9.236  57.240  0.00  0.00    -0.273 OA
BRANCH   7  10
ATOM     10  CA  TRP A   6      -4.502  -9.455  59.477  0.00  0.00    +0.153 C 
BRANCH  10  11
ATOM     11  C   TRP A   6      -5.444  -8.509  60.223  0.00  0.00    +0.241 C 
ATOM     12  N   TYR A   7      -6.411  -9.097  60.914  0.00  0.00    -0.298 N 
ATOM     13  H   TYR A   7      -6.533 -10.126  60.823  0.00  0.00    +0.150 HD
ATOM     14  O   TRP A   6      -5.299  -7.286  60.163  0.00  0.00    -0.273 OA
BRANCH  12  15
ATOM     15  CA  TYR A   7      -7.314  -8.360  61.800  0.00  0.00    +0.141 C 
BRANCH  15  16
ATOM     16  C   TYR A   7      -7.176  -8.937  63.193  0.00  0.00    +0.227 C 
ATOM     17  O   TYR A   7      -7.299 -10.145  63.378  0.00  0.00    -0.286 OA
ENDBRANCH  15  16
BRANCH  15  18
ATOM     18  CB  TYR A   7      -8.758  -8.476  61.332  0.00  0.00    +0.054 C 
BRANCH  18  19
ATOM     19  CG  TYR A   7      -8.998  -7.872  59.971  0.00  0.00    -0.020 A 
ATOM     20  CD2 TYR A   7      -8.794  -6.519  59.746  0.00  0.00    -0.001 A 
ATOM     21  CE2 TYR A   7      -8.998  -5.964  58.496  0.00  0.00    +0.036 A 
ATOM     22  CZ  TYR A   7      -9.409  -6.766  57.449  0.00  0.00    +0.134 A 
ATOM     23  CE1 TYR A   7      -9.600  -8.114  57.638  0.00  0.00    +0.036 A 
ATOM     24  CD1 TYR A   7      -9.394  -8.664  58.892  0.00  0.00    -0.001 A 
BRANCH  22  25
ATOM     25  OH  TYR A   7      -9.604  -6.213  56.223  0.00  0.00    -0.506 OA
ATOM     26  HH  TYR A   7      -8.757  -5.809  55.906  0.00  0.00    +0.292 HD
ENDBRANCH  22  25
ENDBRANCH  18  19
ENDBRANCH  15  18
ENDBRANCH  12  15
ENDBRANCH  10  11
BRANCH  10  27
ATOM     27  CB  TRP A   6      -3.282  -9.804  60.331  0.00  0.00    +0.057 C 
BRANCH  27  28
ATOM     28  CG  TRP A   6      -3.648 -10.460  61.620  0.00  0.00    -0.002 A 
ATOM     29  CD1 TRP A   6      -3.350 -10.021  62.878  0.00  0.00    +0.068 A 
ATOM     30  NE1 TRP A   6      -3.867 -10.887  63.818  0.00  0.00    -0.352 N 
ATOM     31  HE1 TRP A   6      -3.780 -10.783  64.849  0.00  0.00    +0.166 HD
ATOM     32  CE2 TRP A   6      -4.513 -11.906  63.171  0.00  0.00    +0.056 A 
ATOM     33  CZ2 TRP A   6      -5.201 -13.008  63.686  0.00  0.00    +0.017 A 
ATOM     34  CH2 TRP A   6      -5.770 -13.872  62.795  0.00  0.00    +0.001 A 
ATOM     35  CZ3 TRP A   6      -5.672 -13.665  61.409  0.00  0.00    +0.000 A 
ATOM     36  CE3 TRP A   6      -4.999 -12.569  60.893  0.00  0.00    +0.001 A 
ATOM     37  CD2 TRP A   6      -4.405 -11.664  61.783  0.00  0.00    +0.013 A 
ENDBRANCH  27  28
ENDBRANCH  10  27
ENDBRANCH   7  10
ENDBRANCH   5   6
BRANCH   5  38
ATOM     38  CB  ASN A   5      -4.458  -6.927  55.651  0.00  0.00    +0.114 C 
BRANCH  38  39
ATOM     39  CG  ASN A   5      -3.740  -6.430  54.412  0.00  0.00    +0.222 C 
ATOM     40  OD1 ASN A   5      -2.642  -6.915  54.045  0.00  0.00    -0.275 OA
ATOM     41  ND2 ASN A   5      -4.354  -5.456  53.752  0.00  0.00    -0.329 N 
ATOM     42 HD21 ASN A   5      -5.263  -5.087  54.097  0.00  0.00    +0.145 HD
ATOM     43 HD22 ASN A   5      -3.926  -5.061  52.890  0.00  0.00    +0.145 HD
ENDBRANCH  38  39
ENDBRANCH   5  38
ENDBRANCH   2   5
BRANCH   1  44
ATOM     44  CA  PHE A   4      -5.162 -11.020  53.286  0.00  0.00    +0.153 C 
BRANCH  44  46
ATOM     45  C   ASP A   3      -5.635 -10.887  50.915  0.00  0.00    +0.241 C 
ATOM     46  N   PHE A   4      -4.762 -10.776  51.905  0.00  0.00    -0.297 N 
ATOM     47  H   PHE A   4      -3.778 -10.511  51.695  0.00  0.00    +0.150 HD
ATOM     48  O   ASP A   3      -6.790 -11.273  51.079  0.00  0.00    -0.273 OA
BRANCH  45  49
ATOM     49  CA  ASP A   3      -5.120 -10.511  49.529  0.00  0.00    +0.160 C 
BRANCH  49  52
ATOM     50  C   LEU A   2      -5.171 -12.634  48.378  0.00  0.00    +0.241 C 
ATOM     51  O   LEU A   2      -4.150 -13.003  48.970  0.00  0.00    -0.273 OA
ATOM     52  N   ASP A   3      -5.686 -11.417  48.533  0.00  0.00    -0.297 N 
ATOM     53  H   ASP A   3      -6.489 -11.112  47.947  0.00  0.00    +0.150 HD
BRANCH  50  54
ATOM     54  CA  LEU A   2      -5.894 -13.585  47.427  0.00  0.00    +0.149 C 
BRANCH  54  56
ATOM     55  C   VAL A   1      -4.938 -14.281  45.287  0.00  0.00    +0.238 C 
ATOM     56  N   LEU A   2      -4.930 -14.308  46.614  0.00  0.00    -0.297 N 
ATOM     57  H   LEU A   2      -4.200 -14.872  47.094  0.00  0.00    +0.150 HD
ATOM     58  O   VAL A   1      -5.724 -13.597  44.610  0.00  0.00    -0.274 OA
BRANCH  55  59
ATOM     59  CA  VAL A   1      -3.892 -15.152  44.611  0.00  0.00    +0.145 C 
BRANCH  59  60
ATOM     60  CB  VAL A   1      -2.844 -14.267  43.898  0.00  0.00    +0.025 C 
ATOM     61  CG2 VAL A   1      -2.320 -13.180  44.826  0.00  0.00    +0.002 C 
ATOM     62  CG1 VAL A   1      -1.695 -15.115  43.376  0.00  0.00    +0.002 C 
ENDBRANCH  59  60
BRANCH  59  63
ATOM     63  N   VAL A   1      -4.540 -16.070  43.690  0.00  0.00    -0.238 NA
ATOM     64  H   VAL A   1      -4.971 -15.695  42.821  0.00  0.00    +0.142 HD
ENDBRANCH  59  63
ENDBRANCH  55  59
ENDBRANCH  54  56
BRANCH  54  65
ATOM     65  CB  LEU A   2      -6.743 -14.578  48.245  0.00  0.00    +0.029 C 
BRANCH  65  66
ATOM     66  CG  LEU A   2      -7.456 -15.700  47.478  0.00  0.00    +0.002 C 
ATOM     67  CD2 LEU A   2      -8.081 -16.691  48.458  0.00  0.00    +0.000 C 
ATOM     68  CD1 LEU A   2      -8.498 -15.142  46.521  0.00  0.00    +0.000 C 
ENDBRANCH  65  66
ENDBRANCH  54  65
ENDBRANCH  50  54
ENDBRANCH  49  52
BRANCH  49  69
ATOM     69  CB  ASP A   3      -5.403  -9.050  49.230  0.00  0.00    +0.143 C 
BRANCH  69  70
ATOM     70  CG  ASP A   3      -6.860  -8.764  49.041  0.00  0.00    +0.367 C 
ATOM     71  OD2 ASP A   3      -7.456  -8.042  49.894  0.00  0.00    -0.246 OA
ATOM     72  OD1 ASP A   3      -7.402  -9.251  48.020  0.00  0.00    -0.246 OA
ENDBRANCH  69  70
ENDBRANCH  49  69
ENDBRANCH  45  49
ENDBRANCH  44  46
BRANCH  44  73
ATOM     73  CB  PHE A   4      -5.045 -12.502  53.638  0.00  0.00    +0.055 C 
BRANCH  73  74
ATOM     74  CG  PHE A   4      -5.590 -12.883  55.007  0.00  0.00    -0.020 A 
ATOM     75  CD2 PHE A   4      -6.526 -12.099  55.675  0.00  0.00    -0.004 A 
ATOM     76  CE2 PHE A   4      -7.022 -12.475  56.922  0.00  0.00    -0.000 A 
ATOM     77  CZ  PHE A   4      -6.583 -13.647  57.514  0.00  0.00    -0.000 A 
ATOM     78  CE1 PHE A   4      -5.667 -14.448  56.855  0.00  0.00    -0.000 A 
ATOM     79  CD1 PHE A   4      -5.177 -14.064  55.611  0.00  0.00    -0.004 A 
ENDBRANCH  73  74
ENDBRANCH  44  73
ENDBRANCH   1  44
TORSDOF 28
REMARK  Name = ../refined-set-2016/4qlk/4qlk_pocket.pdb
REMARK  284 active torsions:
REMARK  status: ('A' for Active; 'I' for Inactive)
REMARK    1  A    between atoms: _1  and  _3
REMARK    2  A    between atoms: _3  and  _4
REMARK    3  A    between atoms: _3  and  _6
REMARK    4  A    between atoms: _9  and  _11
REMARK    5  A    between atoms: _11  and  _12
REMARK    6  A    between atoms: _11  and  _14
REMARK    7  A    between atoms: _14  and  _15
REMARK    8  A    between atoms: _18  and  _20
REMARK    9  A    between atoms: _20  and  _21
REMARK   10  A    between atoms: _20  and  _23
REMARK   11  A    between atoms: _23  and  _24
REMARK   12  A    between atoms: _26  and  _28
REMARK   13  A    between atoms: _28  and  _29
REMARK   14  A    between atoms: _28  and  _31
REMARK   15  A    between atoms: _31  and  _32
REMARK   16  A    between atoms: _32  and  _33
REMARK   17  A    between atoms: _38  and  _40
REMARK   18  A    between atoms: _40  and  _41
REMARK   19  A    between atoms: _40  and  _43
REMARK   20  A    between atoms: _43  and  _44
REMARK   21  A    between atoms: _44  and  _45
REMARK   22  A    between atoms: _45  and  _46
REMARK   23  A    between atoms: _55  and  _57
REMARK   24  A    between atoms: _57  and  _58
REMARK   25  A    between atoms: _57  and  _60
REMARK   26  A    between atoms: _60  and  _61
REMARK   27  A    between atoms: _66  and  _68
REMARK   28  A    between atoms: _68  and  _69
REMARK   29  A    between atoms: _68  and  _71
REMARK   30  A    between atoms: _71  and  _72
REMARK   31  A    between atoms: _77  and  _78
REMARK   32  A    between atoms: _80  and  _82
REMARK   33  A    between atoms: _82  and  _83
REMARK   34  A    between atoms: _82  and  _85
REMARK   35  A    between atoms: _85  and  _86
REMARK   36  A    between atoms: _91  and  _93
REMARK   37  A    between atoms: _93  and  _94
REMARK   38  A    between atoms: _93  and  _96
REMARK   39  A    between atoms: _96  and  _97
REMARK   40  A    between atoms: _97  and  _98
REMARK   41  A    between atoms: _103  and  _105
REMARK   42  A    between atoms: _105  and  _106
REMARK   43  A    between atoms: _105  and  _108
REMARK   44  A    between atoms: _108  and  _109
REMARK   45  A    between atoms: _109  and  _110
REMARK   46  A    between atoms: _110  and  _111
REMARK   47  A    between atoms: _120  and  _122
REMARK   48  A    between atoms: _122  and  _123
REMARK   49  A    between atoms: _122  and  _125
REMARK   50  A    between atoms: _125  and  _126
REMARK   51  A    between atoms: _129  and  _131
REMARK   52  A    between atoms: _131  and  _132
REMARK   53  A    between atoms: _131  and  _134
REMARK   54  A    between atoms: _134  and  _135
REMARK   55  A    between atoms: _138  and  _140
REMARK   56  A    between atoms: _140  and  _141
REMARK   57  A    between atoms: _140  and  _143
REMARK   58  A    between atoms: _143  and  _144
REMARK   59  A    between atoms: _147  and  _149
REMARK   60  A    between atoms: _149  and  _150
REMARK   61  A    between atoms: _149  and  _152
REMARK   62  A    between atoms: _152  and  _153
REMARK   63  A    between atoms: _156  and  _158
REMARK   64  A    between atoms: _158  and  _159
REMARK   65  A    between atoms: _158  and  _161
REMARK   66  A    between atoms: _161  and  _162
REMARK   67  A    between atoms: _162  and  _163
REMARK   68  A    between atoms: _168  and  _170
REMARK   69  A    between atoms: _170  and  _171
REMARK   70  A    between atoms: _170  and  _173
REMARK   71  A    between atoms: _173  and  _174
REMARK   72  A    between atoms: _177  and  _179
REMARK   73  A    between atoms: _179  and  _180
REMARK   74  A    between atoms: _179  and  _182
REMARK   75  A    between atoms: _182  and  _183
REMARK   76  A    between atoms: _188  and  _190
REMARK   77  A    between atoms: _190  and  _191
REMARK   78  A    between atoms: _190  and  _193
REMARK   79  A    between atoms: _196  and  _198
REMARK   80  A    between atoms: _198  and  _199
REMARK   81  A    between atoms: _198  and  _201
REMARK   82  A    between atoms: _201  and  _202
REMARK   83  A    between atoms: _205  and  _207
REMARK   84  A    between atoms: _207  and  _208
REMARK   85  A    between atoms: _207  and  _210
REMARK   86  A    between atoms: _210  and  _211
REMARK   87  A    between atoms: _214  and  _216
REMARK   88  A    between atoms: _216  and  _217
REMARK   89  A    between atoms: _216  and  _219
REMARK   90  A    between atoms: _219  and  _220
REMARK   91  A    between atoms: _226  and  _228
REMARK   92  A    between atoms: _228  and  _229
REMARK   93  A    between atoms: _228  and  _231
REMARK   94  A    between atoms: _231  and  _232
REMARK   95  A    between atoms: _237  and  _239
REMARK   96  A    between atoms: _239  and  _240
REMARK   97  A    between atoms: _239  and  _242
REMARK   98  A    between atoms: _242  and  _243
REMARK   99  A    between atoms: _253  and  _255
REMARK  100  A    between atoms: _255  and  _256
REMARK  101  A    between atoms: _255  and  _258
REMARK  102  A    between atoms: _258  and  _259
REMARK  103  A    between atoms: _264  and  _265
REMARK  104  A    between atoms: _267  and  _269
REMARK  105  A    between atoms: _269  and  _270
REMARK  106  A    between atoms: _273  and  _275
REMARK  107  A    between atoms: _275  and  _276
REMARK  108  A    between atoms: _275  and  _278
REMARK  109  A    between atoms: _278  and  _279
REMARK  110  A    between atoms: _285  and  _287
REMARK  111  A    between atoms: _287  and  _288
REMARK  112  A    between atoms: _287  and  _290
REMARK  113  A    between atoms: _290  and  _291
REMARK  114  A    between atoms: _296  and  _298
REMARK  115  A    between atoms: _298  and  _299
REMARK  116  A    between atoms: _298  and  _301
REMARK  117  A    between atoms: _301  and  _302
REMARK  118  A    between atoms: _307  and  _309
REMARK  119  A    between atoms: _309  and  _310
REMARK  120  A    between atoms: _309  and  _312
REMARK  121  A    between atoms: _312  and  _313
REMARK  122  A    between atoms: _313  and  _314
REMARK  123  A    between atoms: _319  and  _321
REMARK  124  A    between atoms: _321  and  _322
REMARK  125  A    between atoms: _321  and  _324
REMARK  126  A    between atoms: _324  and  _325
REMARK  127  A    between atoms: _330  and  _331
REMARK  128  A    between atoms: _333  and  _335
REMARK  129  A    between atoms: _335  and  _336
REMARK  130  A    between atoms: _335  and  _338
REMARK  131  A    between atoms: _338  and  _339
REMARK  132  A    between atoms: _342  and  _344
REMARK  133  A    between atoms: _344  and  _345
REMARK  134  A    between atoms: _348  and  _350
REMARK  135  A    between atoms: _350  and  _351
REMARK  136  A    between atoms: _350  and  _353
REMARK  137  A    between atoms: _353  and  _354
REMARK  138  A    between atoms: _356  and  _358
REMARK  139  A    between atoms: _358  and  _359
REMARK  140  A    between atoms: _358  and  _361
REMARK  141  A    between atoms: _361  and  _362
REMARK  142  A    between atoms: _367  and  _368
REMARK  143  A    between atoms: _370  and  _372
REMARK  144  A    between atoms: _372  and  _373
REMARK  145  A    between atoms: _372  and  _375
REMARK  146  A    between atoms: _375  and  _376
REMARK  147  A    between atoms: _376  and  _377
REMARK  148  A    between atoms: _379  and  _381
REMARK  149  A    between atoms: _381  and  _382
REMARK  150  A    between atoms: _381  and  _384
REMARK  151  A    between atoms: _384  and  _385
REMARK  152  A    between atoms: _385  and  _386
REMARK  153  A    between atoms: _386  and  _387
REMARK  154  A    between atoms: _387  and  _388
REMARK  155  A    between atoms: _392  and  _394
REMARK  156  A    between atoms: _394  and  _395
REMARK  157  A    between atoms: _394  and  _397
REMARK  158  A    between atoms: _397  and  _398
REMARK  159  A    between atoms: _400  and  _402
REMARK  160  A    between atoms: _402  and  _403
REMARK  161  A    between atoms: _402  and  _405
REMARK  162  A    between atoms: _405  and  _406
REMARK  163  A    between atoms: _411  and  _412
REMARK  164  A    between atoms: _414  and  _416
REMARK  165  A    between atoms: _416  and  _417
REMARK  166  A    between atoms: _416  and  _419
REMARK  167  A    between atoms: _419  and  _420
REMARK  168  A    between atoms: _422  and  _424
REMARK  169  A    between atoms: _424  and  _425
REMARK  170  A    between atoms: _428  and  _430
REMARK  171  A    between atoms: _430  and  _431
REMARK  172  A    between atoms: _430  and  _433
REMARK  173  A    between atoms: _433  and  _434
REMARK  174  A    between atoms: _437  and  _439
REMARK  175  A    between atoms: _439  and  _440
REMARK  176  A    between atoms: _439  and  _442
REMARK  177  A    between atoms: _442  and  _443
REMARK  178  A    between atoms: _453  and  _455
REMARK  179  A    between atoms: _455  and  _456
REMARK  180  A    between atoms: _455  and  _458
REMARK  181  A    between atoms: _458  and  _459
REMARK  182  A    between atoms: _459  and  _460
REMARK  183  A    between atoms: _465  and  _467
REMARK  184  A    between atoms: _467  and  _468
REMARK  185  A    between atoms: _467  and  _470
REMARK  186  A    between atoms: _473  and  _475
REMARK  187  A    between atoms: _475  and  _476
REMARK  188  A    between atoms: _475  and  _478
REMARK  189  A    between atoms: _478  and  _479
REMARK  190  A    between atoms: _482  and  _484
REMARK  191  A    between atoms: _484  and  _485
REMARK  192  A    between atoms: _488  and  _490
REMARK  193  A    between atoms: _490  and  _491
REMARK  194  A    between atoms: _490  and  _493
REMARK  195  A    between atoms: _496  and  _498
REMARK  196  A    between atoms: _498  and  _499
REMARK  197  A    between atoms: _498  and  _501
REMARK  198  A    between atoms: _501  and  _502
REMARK  199  A    between atoms: _508  and  _510
REMARK  200  A    between atoms: _510  and  _511
REMARK  201  A    between atoms: _510  and  _513
REMARK  202  A    between atoms: _513  and  _514
REMARK  203  A    between atoms: _516  and  _518
REMARK  204  A    between atoms: _518  and  _519
REMARK  205  A    between atoms: _518  and  _521
REMARK  206  A    between atoms: _521  and  _522
REMARK  207  A    between atoms: _527  and  _529
REMARK  208  A    between atoms: _529  and  _530
REMARK  209  A    between atoms: _529  and  _532
REMARK  210  A    between atoms: _532  and  _533
REMARK  211  A    between atoms: _543  and  _545
REMARK  212  A    between atoms: _545  and  _546
REMARK  213  A    between atoms: _545  and  _548
REMARK  214  A    between atoms: _548  and  _549
REMARK  215  A    between atoms: _552  and  _554
REMARK  216  A    between atoms: _554  and  _555
REMARK  217  A    between atoms: _554  and  _557
REMARK  218  A    between atoms: _557  and  _558
REMARK  219  A    between atoms: _563  and  _564
REMARK  220  A    between atoms: _566  and  _568
REMARK  221  A    between atoms: _568  and  _569
REMARK  222  A    between atoms: _568  and  _571
REMARK  223  A    between atoms: _571  and  _572
REMARK  224  A    between atoms: _575  and  _577
REMARK  225  A    between atoms: _577  and  _578
REMARK  226  A    between atoms: _577  and  _580
REMARK  227  A    between atoms: _580  and  _581
REMARK  228  A    between atoms: _581  and  _582
REMARK  229  A    between atoms: _585  and  _587
REMARK  230  A    between atoms: _587  and  _588
REMARK  231  A    between atoms: _587  and  _590
REMARK  232  A    between atoms: _590  and  _591
REMARK  233  A    between atoms: _596  and  _598
REMARK  234  A    between atoms: _598  and  _599
REMARK  235  A    between atoms: _601  and  _603
REMARK  236  A    between atoms: _603  and  _604
REMARK  237  A    between atoms: _603  and  _606
REMARK  238  A    between atoms: _606  and  _607
REMARK  239  A    between atoms: _607  and  _608
REMARK  240  A    between atoms: _610  and  _612
REMARK  241  A    between atoms: _612  and  _613
REMARK  242  A    between atoms: _612  and  _615
REMARK  243  A    between atoms: _615  and  _616
REMARK  244  A    between atoms: _619  and  _621
REMARK  245  A    between atoms: _621  and  _622
REMARK  246  A    between atoms: _621  and  _624
REMARK  247  A    between atoms: _624  and  _625
REMARK  248  A    between atoms: _635  and  _637
REMARK  249  A    between atoms: _637  and  _638
REMARK  250  A    between atoms: _637  and  _640
REMARK  251  A    between atoms: _640  and  _641
REMARK  252  A    between atoms: _643  and  _645
REMARK  253  A    between atoms: _645  and  _646
REMARK  254  A    between atoms: _645  and  _648
REMARK  255  A    between atoms: _648  and  _649
REMARK  256  A    between atoms: _654  and  _656
REMARK  257  A    between atoms: _656  and  _657
REMARK  258  A    between atoms: _656  and  _659
REMARK  259  A    between atoms: _659  and  _660
REMARK  260  A    between atoms: _666  and  _668
REMARK  261  A    between atoms: _668  and  _669
REMARK  262  A    between atoms: _668  and  _671
REMARK  263  A    between atoms: _671  and  _672
REMARK  264  A    between atoms: _672  and  _673
REMARK  265  A    between atoms: _676  and  _678
REMARK  266  A    between atoms: _678  and  _679
REMARK  267  A    between atoms: _678  and  _681
REMARK  268  A    between atoms: _681  and  _682
REMARK  269  A    between atoms: _692  and  _694
REMARK  270  A    between atoms: _694  and  _695
REMARK  271  A    between atoms: _694  and  _697
REMARK  272  A    between atoms: _697  and  _698
REMARK  273  A    between atoms: _701  and  _703
REMARK  274  A    between atoms: _703  and  _704
REMARK  275  A    between atoms: _703  and  _706
REMARK  276  A    between atoms: _706  and  _707
REMARK  277  A    between atoms: _709  and  _711
REMARK  278  A    between atoms: _711  and  _712
REMARK  279  A    between atoms: _711  and  _714
REMARK  280  A    between atoms: _714  and  _715
REMARK  281  A    between atoms: _717  and  _719
REMARK  282  A    between atoms: _719  and  _720
REMARK  283  A    between atoms: _719  and  _722
REMARK  284  A    between atoms: _722  and  _723
REMARK                            x       y       z     vdW  Elec       q    Type
REMARK                         _______ _______ _______ _____ _____    ______ ____
ROOT
ATOM      1  CA  ALA A   1     -13.667  -9.033  59.229  0.00  0.00    +0.133 C 
ATOM      2  CB  ALA A   1     -12.767  -8.016  59.897  0.00  0.00    +0.027 C 
ENDROOT
BRANCH   1   3
ATOM      3  N   ALA A   1     -14.527  -9.704  60.213  0.00  0.00    -0.239 NA
ATOM      4  H   ALA A   1     -14.369  -9.526  61.225  0.00  0.00    +0.142 HD
ENDBRANCH   1   3
BRANCH   1   5
ATOM      5  C   ALA A   1     -12.839 -10.059  58.434  0.00  0.00    +0.224 C 
ATOM      6  O   ALA A   1     -12.762  -9.974  57.212  0.00  0.00    -0.287 OA
ENDBRANCH   1   5
TORSDOF 2
REMARK  Name = ../refined-set-2016/4qlk/4qlk_pocket.pdb
REMARK  284 active torsions:
REMARK  status: ('A' for Active; 'I' for Inactive)
REMARK    1  A    between atoms: _1  and  _3
REMARK    2  A    between atoms: _3  and  _4
REMARK    3  A    between atoms: _3  and  _6
REMARK    4  A    between atoms: _9  and  _11
REMARK    5  A    between atoms: _11  and  _12
REMARK    6  A    between atoms: _11  and  _14
REMARK    7  A    between atoms: _14  and  _15
REMARK    8  A    between atoms: _18  and  _20
REMARK    9  A    between atoms: _20  and  _21
REMARK   10  A    between atoms: _20  and  _23
REMARK   11  A    between atoms: _23  and  _24
REMARK   12  A    between atoms: _26  and  _28
REMARK   13  A    between atoms: _28  and  _29
REMARK   14  A    between atoms: _28  and  _31
REMARK   15  A    between atoms: _31  and  _32
REMARK   16  A    between atoms: _32  and  _33
REMARK   17  A    between atoms: _38  and  _40
REMARK   18  A    between atoms: _40  and  _41
REMARK   19  A    between atoms: _40  and  _43
REMARK   20  A    between atoms: _43  and  _44
REMARK   21  A    between atoms: _44  and  _45
REMARK   22  A    between atoms: _45  and  _46
REMARK   23  A    between atoms: _55  and  _57
REMARK   24  A    between atoms: _57  and  _58
REMARK   25  A    between atoms: _57  and  _60
REMARK   26  A    between atoms: _60  and  _61
REMARK   27  A    between atoms: _66  and  _68
REMARK   28  A    between atoms: _68  and  _69
REMARK   29  A    between atoms: _68  and  _71
REMARK   30  A    between atoms: _71  and  _72
REMARK   31  A    between atoms: _77  and  _78
REMARK   32  A    between atoms: _80  and  _82
REMARK   33  A    between atoms: _82  and  _83
REMARK   34  A    between atoms: _82  and  _85
REMARK   35  A    between atoms: _85  and  _86
REMARK   36  A    between atoms: _91  and  _93
REMARK   37  A    between atoms: _93  and  _94
REMARK   38  A    between atoms: _93  and  _96
REMARK   39  A    between atoms: _96  and  _97
REMARK   40  A    between atoms: _97  and  _98
REMARK   41  A    between atoms: _103  and  _105
REMARK   42  A    between atoms: _105  and  _106
REMARK   43  A    between atoms: _105  and  _108
REMARK   44  A    between atoms: _108  and  _109
REMARK   45  A    between atoms: _109  and  _110
REMARK   46  A    between atoms: _110  and  _111
REMARK   47  A    between atoms: _120  and  _122
REMARK   48  A    between atoms: _122  and  _123
REMARK   49  A    between atoms: _122  and  _125
REMARK   50  A    between atoms: _125  and  _126
REMARK   51  A    between atoms: _129  and  _131
REMARK   52  A    between atoms: _131  and  _132
REMARK   53  A    between atoms: _131  and  _134
REMARK   54  A    between atoms: _134  and  _135
REMARK   55  A    between atoms: _138  and  _140
REMARK   56  A    between atoms: _140  and  _141
REMARK   57  A    between atoms: _140  and  _143
REMARK   58  A    between atoms: _143  and  _144
REMARK   59  A    between atoms: _147  and  _149
REMARK   60  A    between atoms: _149  and  _150
REMARK   61  A    between atoms: _149  and  _152
REMARK   62  A    between atoms: _152  and  _153
REMARK   63  A    between atoms: _156  and  _158
REMARK   64  A    between atoms: _158  and  _159
REMARK   65  A    between atoms: _158  and  _161
REMARK   66  A    between atoms: _161  and  _162
REMARK   67  A    between atoms: _162  and  _163
REMARK   68  A    between atoms: _168  and  _170
REMARK   69  A    between atoms: _170  and  _171
REMARK   70  A    between atoms: _170  and  _173
REMARK   71  A    between atoms: _173  and  _174
REMARK   72  A    between atoms: _177  and  _179
REMARK   73  A    between atoms: _179  and  _180
REMARK   74  A    between atoms: _179  and  _182
REMARK   75  A    between atoms: _182  and  _183
REMARK   76  A    between atoms: _188  and  _190
REMARK   77  A    between atoms: _190  and  _191
REMARK   78  A    between atoms: _190  and  _193
REMARK   79  A    between atoms: _196  and  _198
REMARK   80  A    between atoms: _198  and  _199
REMARK   81  A    between atoms: _198  and  _201
REMARK   82  A    between atoms: _201  and  _202
REMARK   83  A    between atoms: _205  and  _207
REMARK   84  A    between atoms: _207  and  _208
REMARK   85  A    between atoms: _207  and  _210
REMARK   86  A    between atoms: _210  and  _211
REMARK   87  A    between atoms: _214  and  _216
REMARK   88  A    between atoms: _216  and  _217
REMARK   89  A    between atoms: _216  and  _219
REMARK   90  A    between atoms: _219  and  _220
REMARK   91  A    between atoms: _226  and  _228
REMARK   92  A    between atoms: _228  and  _229
REMARK   93  A    between atoms: _228  and  _231
REMARK   94  A    between atoms: _231  and  _232
REMARK   95  A    between atoms: _237  and  _239
REMARK   96  A    between atoms: _239  and  _240
REMARK   97  A    between atoms: _239  and  _242
REMARK   98  A    between atoms: _242  and  _243
REMARK   99  A    between atoms: _253  and  _255
REMARK  100  A    between atoms: _255  and  _256
REMARK  101  A    between atoms: _255  and  _258
REMARK  102  A    between atoms: _258  and  _259
REMARK  103  A    between atoms: _264  and  _265
REMARK  104  A    between atoms: _267  and  _269
REMARK  105  A    between atoms: _269  and  _270
REMARK  106  A    between atoms: _273  and  _275
REMARK  107  A    between atoms: _275  and  _276
REMARK  108  A    between atoms: _275  and  _278
REMARK  109  A    between atoms: _278  and  _279
REMARK  110  A    between atoms: _285  and  _287
REMARK  111  A    between atoms: _287  and  _288
REMARK  112  A    between atoms: _287  and  _290
REMARK  113  A    between atoms: _290  and  _291
REMARK  114  A    between atoms: _296  and  _298
REMARK  115  A    between atoms: _298  and  _299
REMARK  116  A    between atoms: _298  and  _301
REMARK  117  A    between atoms: _301  and  _302
REMARK  118  A    between atoms: _307  and  _309
REMARK  119  A    between atoms: _309  and  _310
REMARK  120  A    between atoms: _309  and  _312
REMARK  121  A    between atoms: _312  and  _313
REMARK  122  A    between atoms: _313  and  _314
REMARK  123  A    between atoms: _319  and  _321
REMARK  124  A    between atoms: _321  and  _322
REMARK  125  A    between atoms: _321  and  _324
REMARK  126  A    between atoms: _324  and  _325
REMARK  127  A    between atoms: _330  and  _331
REMARK  128  A    between atoms: _333  and  _335
REMARK  129  A    between atoms: _335  and  _336
REMARK  130  A    between atoms: _335  and  _338
REMARK  131  A    between atoms: _338  and  _339
REMARK  132  A    between atoms: _342  and  _344
REMARK  133  A    between atoms: _344  and  _345
REMARK  134  A    between atoms: _348  and  _350
REMARK  135  A    between atoms: _350  and  _351
REMARK  136  A    between atoms: _350  and  _353
REMARK  137  A    between atoms: _353  and  _354
REMARK  138  A    between atoms: _356  and  _358
REMARK  139  A    between atoms: _358  and  _359
REMARK  140  A    between atoms: _358  and  _361
REMARK  141  A    between atoms: _361  and  _362
REMARK  142  A    between atoms: _367  and  _368
REMARK  143  A    between atoms: _370  and  _372
REMARK  144  A    between atoms: _372  and  _373
REMARK  145  A    between atoms: _372  and  _375
REMARK  146  A    between atoms: _375  and  _376
REMARK  147  A    between atoms: _376  and  _377
REMARK  148  A    between atoms: _379  and  _381
REMARK  149  A    between atoms: _381  and  _382
REMARK  150  A    between atoms: _381  and  _384
REMARK  151  A    between atoms: _384  and  _385
REMARK  152  A    between atoms: _385  and  _386
REMARK  153  A    between atoms: _386  and  _387
REMARK  154  A    between atoms: _387  and  _388
REMARK  155  A    between atoms: _392  and  _394
REMARK  156  A    between atoms: _394  and  _395
REMARK  157  A    between atoms: _394  and  _397
REMARK  158  A    between atoms: _397  and  _398
REMARK  159  A    between atoms: _400  and  _402
REMARK  160  A    between atoms: _402  and  _403
REMARK  161  A    between atoms: _402  and  _405
REMARK  162  A    between atoms: _405  and  _406
REMARK  163  A    between atoms: _411  and  _412
REMARK  164  A    between atoms: _414  and  _416
REMARK  165  A    between atoms: _416  and  _417
REMARK  166  A    between atoms: _416  and  _419
REMARK  167  A    between atoms: _419  and  _420
REMARK  168  A    between atoms: _422  and  _424
REMARK  169  A    between atoms: _424  and  _425
REMARK  170  A    between atoms: _428  and  _430
REMARK  171  A    between atoms: _430  and  _431
REMARK  172  A    between atoms: _430  and  _433
REMARK  173  A    between atoms: _433  and  _434
REMARK  174  A    between atoms: _437  and  _439
REMARK  175  A    between atoms: _439  and  _440
REMARK  176  A    between atoms: _439  and  _442
REMARK  177  A    between atoms: _442  and  _443
REMARK  178  A    between atoms: _453  and  _455
REMARK  179  A    between atoms: _455  and  _456
REMARK  180  A    between atoms: _455  and  _458
REMARK  181  A    between atoms: _458  and  _459
REMARK  182  A    between atoms: _459  and  _460
REMARK  183  A    between atoms: _465  and  _467
REMARK  184  A    between atoms: _467  and  _468
REMARK  185  A    between atoms: _467  and  _470
REMARK  186  A    between atoms: _473  and  _475
REMARK  187  A    between atoms: _475  and  _476
REMARK  188  A    between atoms: _475  and  _478
REMARK  189  A    between atoms: _478  and  _479
REMARK  190  A    between atoms: _482  and  _484
REMARK  191  A    between atoms: _484  and  _485
REMARK  192  A    between atoms: _488  and  _490
REMARK  193  A    between atoms: _490  and  _491
REMARK  194  A    between atoms: _490  and  _493
REMARK  195  A    between atoms: _496  and  _498
REMARK  196  A    between atoms: _498  and  _499
REMARK  197  A    between atoms: _498  and  _501
REMARK  198  A    between atoms: _501  and  _502
REMARK  199  A    between atoms: _508  and  _510
REMARK  200  A    between atoms: _510  and  _511
REMARK  201  A    between atoms: _510  and  _513
REMARK  202  A    between atoms: _513  and  _514
REMARK  203  A    between atoms: _516  and  _518
REMARK  204  A    between atoms: _518  and  _519
REMARK  205  A    between atoms: _518  and  _521
REMARK  206  A    between atoms: _521  and  _522
REMARK  207  A    between atoms: _527  and  _529
REMARK  208  A    between atoms: _529  and  _530
REMARK  209  A    between atoms: _529  and  _532
REMARK  210  A    between atoms: _532  and  _533
REMARK  211  A    between atoms: _543  and  _545
REMARK  212  A    between atoms: _545  and  _546
REMARK  213  A    between atoms: _545  and  _548
REMARK  214  A    between atoms: _548  and  _549
REMARK  215  A    between atoms: _552  and  _554
REMARK  216  A    between atoms: _554  and  _555
REMARK  217  A    between atoms: _554  and  _557
REMARK  218  A    between atoms: _557  and  _558
REMARK  219  A    between atoms: _563  and  _564
REMARK  220  A    between atoms: _566  and  _568
REMARK  221  A    between atoms: _568  and  _569
REMARK  222  A    between atoms: _568  and  _571
REMARK  223  A    between atoms: _571  and  _572
REMARK  224  A    between atoms: _575  and  _577
REMARK  225  A    between atoms: _577  and  _578
REMARK  226  A    between atoms: _577  and  _580
REMARK  227  A    between atoms: _580  and  _581
REMARK  228  A    between atoms: _581  and  _582
REMARK  229  A    between atoms: _585  and  _587
REMARK  230  A    between atoms: _587  and  _588
REMARK  231  A    between atoms: _587  and  _590
REMARK  232  A    between atoms: _590  and  _591
REMARK  233  A    between atoms: _596  and  _598
REMARK  234  A    between atoms: _598  and  _599
REMARK  235  A    between atoms: _601  and  _603
REMARK  236  A    between atoms: _603  and  _604
REMARK  237  A    between atoms: _603  and  _606
REMARK  238  A    between atoms: _606  and  _607
REMARK  239  A    between atoms: _607  and  _608
REMARK  240  A    between atoms: _610  and  _612
REMARK  241  A    between atoms: _612  and  _613
REMARK  242  A    between atoms: _612  and  _615
REMARK  243  A    between atoms: _615  and  _616
REMARK  244  A    between atoms: _619  and  _621
REMARK  245  A    between atoms: _621  and  _622
REMARK  246  A    between atoms: _621  and  _624
REMARK  247  A    between atoms: _624  and  _625
REMARK  248  A    between atoms: _635  and  _637
REMARK  249  A    between atoms: _637  and  _638
REMARK  250  A    between atoms: _637  and  _640
REMARK  251  A    between atoms: _640  and  _641
REMARK  252  A    between atoms: _643  and  _645
REMARK  253  A    between atoms: _645  and  _646
REMARK  254  A    between atoms: _645  and  _648
REMARK  255  A    between atoms: _648  and  _649
REMARK  256  A    between atoms: _654  and  _656
REMARK  257  A    between atoms: _656  and  _657
REMARK  258  A    between atoms: _656  and  _659
REMARK  259  A    between atoms: _659  and  _660
REMARK  260  A    between atoms: _666  and  _668
REMARK  261  A    between atoms: _668  and  _669
REMARK  262  A    between atoms: _668  and  _671
REMARK  263  A    between atoms: _671  and  _672
REMARK  264  A    between atoms: _672  and  _673
REMARK  265  A    between atoms: _676  and  _678
REMARK  266  A    between atoms: _678  and  _679
REMARK  267  A    between atoms: _678  and  _681
REMARK  268  A    between atoms: _681  and  _682
REMARK  269  A    between atoms: _692  and  _694
REMARK  270  A    between atoms: _694  and  _695
REMARK  271  A    between atoms: _694  and  _697
REMARK  272  A    between atoms: _697  and  _698
REMARK  273  A    between atoms: _701  and  _703
REMARK  274  A    between atoms: _703  and  _704
REMARK  275  A    between atoms: _703  and  _706
REMARK  276  A    between atoms: _706  and  _707
REMARK  277  A    between atoms: _709  and  _711
REMARK  278  A    between atoms: _711  and  _712
REMARK  279  A    between atoms: _711  and  _714
REMARK  280  A    between atoms: _714  and  _715
REMARK  281  A    between atoms: _717  and  _719
REMARK  282  A    between atoms: _719  and  _720
REMARK  283  A    between atoms: _719  and  _722
REMARK  284  A    between atoms: _722  and  _723
REMARK                            x       y       z     vdW  Elec       q    Type
REMARK                         _______ _______ _______ _____ _____    ______ ____
ROOT
ATOM      1  C   PHE A   1     -14.409 -10.572  53.854  0.00  0.00    +0.239 C 
ATOM      2  N   HIS A   2     -13.209 -10.699  54.403  0.00  0.00    -0.298 N 
ATOM      3  H   HIS A   2     -13.136 -11.054  55.378  0.00  0.00    +0.150 HD
ATOM      4  O   PHE A   1     -14.578 -10.203  52.695  0.00  0.00    -0.274 OA
ENDROOT
BRANCH   1   5
ATOM      5  CA  PHE A   1     -15.609 -10.891  54.761  0.00  0.00    +0.149 C 
BRANCH   5   6
ATOM      6  N   PHE A   1     -15.246 -11.751  55.896  0.00  0.00    -0.238 NA
ATOM      7  H   PHE A   1     -15.172 -11.334  56.846  0.00  0.00    +0.142 HD
ENDBRANCH   5   6
BRANCH   5   8
ATOM      8  CB  PHE A   1     -16.231  -9.576  55.239  0.00  0.00    +0.053 C 
BRANCH   8   9
ATOM      9  CG  PHE A   1     -17.731  -9.624  55.419  0.00  0.00    -0.020 A 
ATOM     10  CD2 PHE A   1     -18.294 -10.049  56.626  0.00  0.00    -0.004 A 
ATOM     11  CE2 PHE A   1     -19.666 -10.084  56.792  0.00  0.00    -0.000 A 
ATOM     12  CZ  PHE A   1     -20.502  -9.662  55.768  0.00  0.00    -0.000 A 
ATOM     13  CE1 PHE A   1     -19.969  -9.218  54.574  0.00  0.00    -0.000 A 
ATOM     14  CD1 PHE A   1     -18.587  -9.199  54.402  0.00  0.00    -0.004 A 
ENDBRANCH   8   9
ENDBRANCH   5   8
ENDBRANCH   1   5
BRANCH   2  15
ATOM     15  CA  HIS A   2     -11.989 -10.356  53.682  0.00  0.00    +0.143 C 
BRANCH  15  16
ATOM     16  C   HIS A   2     -11.444 -11.568  52.907  0.00  0.00    +0.227 C 
ATOM     17  O   HIS A   2     -11.349 -11.546  51.678  0.00  0.00    -0.286 OA
ENDBRANCH  15  16
BRANCH  15  18
ATOM     18  CB  HIS A   2     -10.921  -9.807  54.647  0.00  0.00    +0.075 C 
BRANCH  18  19
ATOM     19  CG  HIS A   2      -9.736  -9.205  53.954  0.00  0.00    +0.082 A 
ATOM     20  ND1 HIS A   2      -9.309  -7.917  54.194  0.00  0.00    -0.227 NA
ATOM     21  CE1 HIS A   2      -8.268  -7.648  53.427  0.00  0.00    +0.199 A 
ATOM     22  NE2 HIS A   2      -8.018  -8.706  52.678  0.00  0.00    -0.221 NA
ATOM     23  CD2 HIS A   2      -8.925  -9.691  52.982  0.00  0.00    +0.115 A 
ENDBRANCH  18  19
ENDBRANCH  15  18
ENDBRANCH   2  15
TORSDOF 8
REMARK  Name = ../refined-set-2016/4qlk/4qlk_pocket.pdb
REMARK  284 active torsions:
REMARK  status: ('A' for Active; 'I' for Inactive)
REMARK    1  A    between atoms: _1  and  _3
REMARK    2  A    between atoms: _3  and  _4
REMARK    3  A    between atoms: _3  and  _6
REMARK    4  A    between atoms: _9  and  _11
REMARK    5  A    between atoms: _11  and  _12
REMARK    6  A    between atoms: _11  and  _14
REMARK    7  A    between atoms: _14  and  _15
REMARK    8  A    between atoms: _18  and  _20
REMARK    9  A    between atoms: _20  and  _21
REMARK   10  A    between atoms: _20  and  _23
REMARK   11  A    between atoms: _23  and  _24
REMARK   12  A    between atoms: _26  and  _28
REMARK   13  A    between atoms: _28  and  _29
REMARK   14  A    between atoms: _28  and  _31
REMARK   15  A    between atoms: _31  and  _32
REMARK   16  A    between atoms: _32  and  _33
REMARK   17  A    between atoms: _38  and  _40
REMARK   18  A    between atoms: _40  and  _41
REMARK   19  A    between atoms: _40  and  _43
REMARK   20  A    between atoms: _43  and  _44
REMARK   21  A    between atoms: _44  and  _45
REMARK   22  A    between atoms: _45  and  _46
REMARK   23  A    between atoms: _55  and  _57
REMARK   24  A    between atoms: _57  and  _58
REMARK   25  A    between atoms: _57  and  _60
REMARK   26  A    between atoms: _60  and  _61
REMARK   27  A    between atoms: _66  and  _68
REMARK   28  A    between atoms: _68  and  _69
REMARK   29  A    between atoms: _68  and  _71
REMARK   30  A    between atoms: _71  and  _72
REMARK   31  A    between atoms: _77  and  _78
REMARK   32  A    between atoms: _80  and  _82
REMARK   33  A    between atoms: _82  and  _83
REMARK   34  A    between atoms: _82  and  _85
REMARK   35  A    between atoms: _85  and  _86
REMARK   36  A    between atoms: _91  and  _93
REMARK   37  A    between atoms: _93  and  _94
REMARK   38  A    between atoms: _93  and  _96
REMARK   39  A    between atoms: _96  and  _97
REMARK   40  A    between atoms: _97  and  _98
REMARK   41  A    between atoms: _103  and  _105
REMARK   42  A    between atoms: _105  and  _106
REMARK   43  A    between atoms: _105  and  _108
REMARK   44  A    between atoms: _108  and  _109
REMARK   45  A    between atoms: _109  and  _110
REMARK   46  A    between atoms: _110  and  _111
REMARK   47  A    between atoms: _120  and  _122
REMARK   48  A    between atoms: _122  and  _123
REMARK   49  A    between atoms: _122  and  _125
REMARK   50  A    between atoms: _125  and  _126
REMARK   51  A    between atoms: _129  and  _131
REMARK   52  A    between atoms: _131  and  _132
REMARK   53  A    between atoms: _131  and  _134
REMARK   54  A    between atoms: _134  and  _135
REMARK   55  A    between atoms: _138  and  _140
REMARK   56  A    between atoms: _140  and  _141
REMARK   57  A    between atoms: _140  and  _143
REMARK   58  A    between atoms: _143  and  _144
REMARK   59  A    between atoms: _147  and  _149
REMARK   60  A    between atoms: _149  and  _150
REMARK   61  A    between atoms: _149  and  _152
REMARK   62  A    between atoms: _152  and  _153
REMARK   63  A    between atoms: _156  and  _158
REMARK   64  A    between atoms: _158  and  _159
REMARK   65  A    between atoms: _158  and  _161
REMARK   66  A    between atoms: _161  and  _162
REMARK   67  A    between atoms: _162  and  _163
REMARK   68  A    between atoms: _168  and  _170
REMARK   69  A    between atoms: _170  and  _171
REMARK   70  A    between atoms: _170  and  _173
REMARK   71  A    between atoms: _173  and  _174
REMARK   72  A    between atoms: _177  and  _179
REMARK   73  A    between atoms: _179  and  _180
REMARK   74  A    between atoms: _179  and  _182
REMARK   75  A    between atoms: _182  and  _183
REMARK   76  A    between atoms: _188  and  _190
REMARK   77  A    between atoms: _190  and  _191
REMARK   78  A    between atoms: _190  and  _193
REMARK   79  A    between atoms: _196  and  _198
REMARK   80  A    between atoms: _198  and  _199
REMARK   81  A    between atoms: _198  and  _201
REMARK   82  A    between atoms: _201  and  _202
REMARK   83  A    between atoms: _205  and  _207
REMARK   84  A    between atoms: _207  and  _208
REMARK   85  A    between atoms: _207  and  _210
REMARK   86  A    between atoms: _210  and  _211
REMARK   87  A    between atoms: _214  and  _216
REMARK   88  A    between atoms: _216  and  _217
REMARK   89  A    between atoms: _216  and  _219
REMARK   90  A    between atoms: _219  and  _220
REMARK   91  A    between atoms: _226  and  _228
REMARK   92  A    between atoms: _228  and  _229
REMARK   93  A    between atoms: _228  and  _231
REMARK   94  A    between atoms: _231  and  _232
REMARK   95  A    between atoms: _237  and  _239
REMARK   96  A    between atoms: _239  and  _240
REMARK   97  A    between atoms: _239  and  _242
REMARK   98  A    between atoms: _242  and  _243
REMARK   99  A    between atoms: _253  and  _255
REMARK  100  A    between atoms: _255  and  _256
REMARK  101  A    between atoms: _255  and  _258
REMARK  102  A    between atoms: _258  and  _259
REMARK  103  A    between atoms: _264  and  _265
REMARK  104  A    between atoms: _267  and  _269
REMARK  105  A    between atoms: _269  and  _270
REMARK  106  A    between atoms: _273  and  _275
REMARK  107  A    between atoms: _275  and  _276
REMARK  108  A    between atoms: _275  and  _278
REMARK  109  A    between atoms: _278  and  _279
REMARK  110  A    between atoms: _285  and  _287
REMARK  111  A    between atoms: _287  and  _288
REMARK  112  A    between atoms: _287  and  _290
REMARK  113  A    between atoms: _290  and  _291
REMARK  114  A    between atoms: _296  and  _298
REMARK  115  A    between atoms: _298  and  _299
REMARK  116  A    between atoms: _298  and  _301
REMARK  117  A    between atoms: _301  and  _302
REMARK  118  A    between atoms: _307  and  _309
REMARK  119  A    between atoms: _309  and  _310
REMARK  120  A    between atoms: _309  and  _312
REMARK  121  A    between atoms: _312  and  _313
REMARK  122  A    between atoms: _313  and  _314
REMARK  123  A    between atoms: _319  and  _321
REMARK  124  A    between atoms: _321  and  _322
REMARK  125  A    between atoms: _321  and  _324
REMARK  126  A    between atoms: _324  and  _325
REMARK  127  A    between atoms: _330  and  _331
REMARK  128  A    between atoms: _333  and  _335
REMARK  129  A    between atoms: _335  and  _336
REMARK  130  A    between atoms: _335  and  _338
REMARK  131  A    between atoms: _338  and  _339
REMARK  132  A    between atoms: _342  and  _344
REMARK  133  A    between atoms: _344  and  _345
REMARK  134  A    between atoms: _348  and  _350
REMARK  135  A    between atoms: _350  and  _351
REMARK  136  A    between atoms: _350  and  _353
REMARK  137  A    between atoms: _353  and  _354
REMARK  138  A    between atoms: _356  and  _358
REMARK  139  A    between atoms: _358  and  _359
REMARK  140  A    between atoms: _358  and  _361
REMARK  141  A    between atoms: _361  and  _362
REMARK  142  A    between atoms: _367  and  _368
REMARK  143  A    between atoms: _370  and  _372
REMARK  144  A    between atoms: _372  and  _373
REMARK  145  A    between atoms: _372  and  _375
REMARK  146  A    between atoms: _375  and  _376
REMARK  147  A    between atoms: _376  and  _377
REMARK  148  A    between atoms: _379  and  _381
REMARK  149  A    between atoms: _381  and  _382
REMARK  150  A    between atoms: _381  and  _384
REMARK  151  A    between atoms: _384  and  _385
REMARK  152  A    between atoms: _385  and  _386
REMARK  153  A    between atoms: _386  and  _387
REMARK  154  A    between atoms: _387  and  _388
REMARK  155  A    between atoms: _392  and  _394
REMARK  156  A    between atoms: _394  and  _395
REMARK  157  A    between atoms: _394  and  _397
REMARK  158  A    between atoms: _397  and  _398
REMARK  159  A    between atoms: _400  and  _402
REMARK  160  A    between atoms: _402  and  _403
REMARK  161  A    between atoms: _402  and  _405
REMARK  162  A    between atoms: _405  and  _406
REMARK  163  A    between atoms: _411  and  _412
REMARK  164  A    between atoms: _414  and  _416
REMARK  165  A    between atoms: _416  and  _417
REMARK  166  A    between atoms: _416  and  _419
REMARK  167  A    between atoms: _419  and  _420
REMARK  168  A    between atoms: _422  and  _424
REMARK  169  A    between atoms: _424  and  _425
REMARK  170  A    between atoms: _428  and  _430
REMARK  171  A    between atoms: _430  and  _431
REMARK  172  A    between atoms: _430  and  _433
REMARK  173  A    between atoms: _433  and  _434
REMARK  174  A    between atoms: _437  and  _439
REMARK  175  A    between atoms: _439  and  _440
REMARK  176  A    between atoms: _439  and  _442
REMARK  177  A    between atoms: _442  and  _443
REMARK  178  A    between atoms: _453  and  _455
REMARK  179  A    between atoms: _455  and  _456
REMARK  180  A    between atoms: _455  and  _458
REMARK  181  A    between atoms: _458  and  _459
REMARK  182  A    between atoms: _459  and  _460
REMARK  183  A    between atoms: _465  and  _467
REMARK  184  A    between atoms: _467  and  _468
REMARK  185  A    between atoms: _467  and  _470
REMARK  186  A    between atoms: _473  and  _475
REMARK  187  A    between atoms: _475  and  _476
REMARK  188  A    between atoms: _475  and  _478
REMARK  189  A    between atoms: _478  and  _479
REMARK  190  A    between atoms: _482  and  _484
REMARK  191  A    between atoms: _484  and  _485
REMARK  192  A    between atoms: _488  and  _490
REMARK  193  A    between atoms: _490  and  _491
REMARK  194  A    between atoms: _490  and  _493
REMARK  195  A    between atoms: _496  and  _498
REMARK  196  A    between atoms: _498  and  _499
REMARK  197  A    between atoms: _498  and  _501
REMARK  198  A    between atoms: _501  and  _502
REMARK  199  A    between atoms: _508  and  _510
REMARK  200  A    between atoms: _510  and  _511
REMARK  201  A    between atoms: _510  and  _513
REMARK  202  A    between atoms: _513  and  _514
REMARK  203  A    between atoms: _516  and  _518
REMARK  204  A    between atoms: _518  and  _519
REMARK  205  A    between atoms: _518  and  _521
REMARK  206  A    between atoms: _521  and  _522
REMARK  207  A    between atoms: _527  and  _529
REMARK  208  A    between atoms: _529  and  _530
REMARK  209  A    between atoms: _529  and  _532
REMARK  210  A    between atoms: _532  and  _533
REMARK  211  A    between atoms: _543  and  _545
REMARK  212  A    between atoms: _545  and  _546
REMARK  213  A    between atoms: _545  and  _548
REMARK  214  A    between atoms: _548  and  _549
REMARK  215  A    between atoms: _552  and  _554
REMARK  216  A    between atoms: _554  and  _555
REMARK  217  A    between atoms: _554  and  _557
REMARK  218  A    between atoms: _557  and  _558
REMARK  219  A    between atoms: _563  and  _564
REMARK  220  A    between atoms: _566  and  _568
REMARK  221  A    between atoms: _568  and  _569
REMARK  222  A    between atoms: _568  and  _571
REMARK  223  A    between atoms: _571  and  _572
REMARK  224  A    between atoms: _575  and  _577
REMARK  225  A    between atoms: _577  and  _578
REMARK  226  A    between atoms: _577  and  _580
REMARK  227  A    between atoms: _580  and  _581
REMARK  228  A    between atoms: _581  and  _582
REMARK  229  A    between atoms: _585  and  _587
REMARK  230  A    between atoms: _587  and  _588
REMARK  231  A    between atoms: _587  and  _590
REMARK  232  A    between atoms: _590  and  _591
REMARK  233  A    between atoms: _596  and  _598
REMARK  234  A    between atoms: _598  and  _599
REMARK  235  A    between atoms: _601  and  _603
REMARK  236  A    between atoms: _603  and  _604
REMARK  237  A    between atoms: _603  and  _606
REMARK  238  A    between atoms: _606  and  _607
REMARK  239  A    between atoms: _607  and  _608
REMARK  240  A    between atoms: _610  and  _612
REMARK  241  A    between atoms: _612  and  _613
REMARK  242  A    between atoms: _612  and  _615
REMARK  243  A    between atoms: _615  and  _616
REMARK  244  A    between atoms: _619  and  _621
REMARK  245  A    between atoms: _621  and  _622
REMARK  246  A    between atoms: _621  and  _624
REMARK  247  A    between atoms: _624  and  _625
REMARK  248  A    between atoms: _635  and  _637
REMARK  249  A    between atoms: _637  and  _638
REMARK  250  A    between atoms: _637  and  _640
REMARK  251  A    between atoms: _640  and  _641
REMARK  252  A    between atoms: _643  and  _645
REMARK  253  A    between atoms: _645  and  _646
REMARK  254  A    between atoms: _645  and  _648
REMARK  255  A    between atoms: _648  and  _649
REMARK  256  A    between atoms: _654  and  _656
REMARK  257  A    between atoms: _656  and  _657
REMARK  258  A    between atoms: _656  and  _659
REMARK  259  A    between atoms: _659  and  _660
REMARK  260  A    between atoms: _666  and  _668
REMARK  261  A    between atoms: _668  and  _669
REMARK  262  A    between atoms: _668  and  _671
REMARK  263  A    between atoms: _671  and  _672
REMARK  264  A    between atoms: _672  and  _673
REMARK  265  A    between atoms: _676  and  _678
REMARK  266  A    between atoms: _678  and  _679
REMARK  267  A    between atoms: _678  and  _681
REMARK  268  A    between atoms: _681  and  _682
REMARK  269  A    between atoms: _692  and  _694
REMARK  270  A    between atoms: _694  and  _695
REMARK  271  A    between atoms: _694  and  _697
REMARK  272  A    between atoms: _697  and  _698
REMARK  273  A    between atoms: _701  and  _703
REMARK  274  A    between atoms: _703  and  _704
REMARK  275  A    between atoms: _703  and  _706
REMARK  276  A    between atoms: _706  and  _707
REMARK  277  A    between atoms: _709  and  _711
REMARK  278  A    between atoms: _711  and  _712
REMARK  279  A    between atoms: _711  and  _714
REMARK  280  A    between atoms: _714  and  _715
REMARK  281  A    between atoms: _717  and  _719
REMARK  282  A    between atoms: _719  and  _720
REMARK  283  A    between atoms: _719  and  _722
REMARK  284  A    between atoms: _722  and  _723
REMARK                            x       y       z     vdW  Elec       q    Type
REMARK                         _______ _______ _______ _____ _____    ______ ____
ROOT
ATOM      1  C   THR A   4      -1.444  -5.827  57.820  0.00  0.00    +0.243 C 
ATOM      2  N   ALA A   5      -1.758  -5.088  58.877  0.00  0.00    -0.297 N 
ATOM      3  H   ALA A   5      -1.336  -4.142  58.965  0.00  0.00    +0.150 HD
ATOM      4  O   THR A   4      -1.908  -6.959  57.618  0.00  0.00    -0.273 OA
ENDROOT
BRANCH   2   5
ATOM      5  CA  ALA A   5      -2.668  -5.545  59.919  0.00  0.00    +0.149 C 
ATOM      6  CB  ALA A   5      -1.894  -6.237  61.021  0.00  0.00    +0.031 C 
BRANCH   5   7
ATOM      7  C   ALA A   5      -3.430  -4.353  60.484  0.00  0.00    +0.241 C 
ATOM      8  N   SER A   6      -4.599  -4.607  61.059  0.00  0.00    -0.295 N 
ATOM      9  H   SER A   6      -5.013  -5.557  60.969  0.00  0.00    +0.150 HD
ATOM     10  O   ALA A   5      -2.970  -3.220  60.386  0.00  0.00    -0.273 OA
BRANCH   8  11
ATOM     11  CA  SER A   6      -5.320  -3.583  61.816  0.00  0.00    +0.178 C 
BRANCH  11  12
ATOM     12  C   SER A   6      -6.031  -4.219  62.995  0.00  0.00    +0.243 C 
ATOM     13  N   TYR A   7      -6.456  -3.378  63.930  0.00  0.00    -0.297 N 
ATOM     14  H   TYR A   7      -6.136  -2.389  63.904  0.00  0.00    +0.150 HD
ATOM     15  O   SER A   6      -6.181  -5.438  63.050  0.00  0.00    -0.273 OA
BRANCH  13  16
ATOM     16  CA  TYR A   7      -7.361  -3.804  64.993  0.00  0.00    +0.153 C 
BRANCH  16  17
ATOM     17  C   TYR A   7      -8.792  -3.676  64.494  0.00  0.00    +0.241 C 
ATOM     18  N   MET A   8      -9.689  -4.454  65.101  0.00  0.00    -0.297 N 
ATOM     19  H   MET A   8      -9.357  -5.124  65.824  0.00  0.00    +0.150 HD
ATOM     20  O   TYR A   7      -9.071  -2.893  63.577  0.00  0.00    -0.273 OA
BRANCH  18  21
ATOM     21  CA  MET A   8     -11.103  -4.409  64.800  0.00  0.00    +0.149 C 
BRANCH  21  22
ATOM     22  C   MET A   8     -11.922  -4.244  66.083  0.00  0.00    +0.241 C 
ATOM     23  O   MET A   8     -11.706  -4.942  67.072  0.00  0.00    -0.273 OA
ATOM     24  N   LYS A   9     -12.848  -3.300  66.019  0.00  0.00    -0.298 N 
ATOM     25  H   LYS A   9     -12.924  -2.748  65.141  0.00  0.00    +0.150 HD
BRANCH  24  26
ATOM     26  CA  LYS A   9     -13.769  -2.987  67.107  0.00  0.00    +0.137 C 
BRANCH  26  27
ATOM     27  C   LYS A   9     -15.171  -3.349  66.636  0.00  0.00    +0.227 C 
ATOM     28  O   LYS A   9     -15.551  -3.082  65.492  0.00  0.00    -0.286 OA
ENDBRANCH  26  27
BRANCH  26  29
ATOM     29  CB  LYS A   9     -13.676  -1.498  67.454  0.00  0.00    +0.028 C 
BRANCH  29  30
ATOM     30  CG  LYS A   9     -14.527  -1.048  68.621  0.00  0.00    -0.000 C 
BRANCH  30  31
ATOM     31  CD  LYS A   9     -14.300   0.422  68.932  0.00  0.00    -0.024 C 
BRANCH  31  32
ATOM     32  CE  LYS A   9     -15.242   0.936  70.010  0.00  0.00    -0.086 C 
BRANCH  32  33
ATOM     33  NZ  LYS A   9     -15.162   0.132  71.264  0.00  0.00    +0.380 N 
ATOM     34  HZ1 LYS A   9     -15.822   0.522  71.967  0.00  0.00    -0.089 HD
ATOM     35  HZ2 LYS A   9     -14.192   0.171  71.638  0.00  0.00    -0.089 HD
ATOM     36  HZ3 LYS A   9     -15.416  -0.855  71.058  0.00  0.00    -0.089 HD
ENDBRANCH  32  33
ENDBRANCH  31  32
ENDBRANCH  30  31
ENDBRANCH  29  30
ENDBRANCH  26  29
ENDBRANCH  24  26
ENDBRANCH  21  22
BRANCH  21  37
ATOM     37  CB  MET A   8     -11.541  -5.670  64.057  0.00  0.00    +0.041 C 
BRANCH  37  38
ATOM     38  CG  MET A   8     -11.199  -5.653  62.577  0.00  0.00    +0.060 C 
BRANCH  38  39
ATOM     39  SD  MET A   8     -12.239  -4.433  61.756  0.00  0.00    -0.139 S 
ATOM     40  CE  MET A   8     -11.433  -4.218  60.174  0.00  0.00    +0.069 C 
ENDBRANCH  38  39
ENDBRANCH  37  38
ENDBRANCH  21  37
ENDBRANCH  18  21
ENDBRANCH  16  17
BRANCH  16  41
ATOM     41  CB  TYR A   7      -7.151  -2.982  66.259  0.00  0.00    +0.055 C 
BRANCH  41  42
ATOM     42  CG  TYR A   7      -5.783  -3.153  66.874  0.00  0.00    -0.020 A 
ATOM     43  CD2 TYR A   7      -5.417  -4.350  67.499  0.00  0.00    -0.001 A 
ATOM     44  CE2 TYR A   7      -4.162  -4.510  68.068  0.00  0.00    +0.036 A 
ATOM     45  CZ  TYR A   7      -3.258  -3.465  68.018  0.00  0.00    +0.134 A 
ATOM     46  CE1 TYR A   7      -3.599  -2.274  67.417  0.00  0.00    +0.036 A 
ATOM     47  CD1 TYR A   7      -4.859  -2.119  66.852  0.00  0.00    -0.001 A 
BRANCH  45  48
ATOM     48  OH  TYR A   7      -2.017  -3.598  68.590  0.00  0.00    -0.506 OA
ATOM     49  HH  TYR A   7      -1.928  -4.505  68.976  0.00  0.00    +0.292 HD
ENDBRANCH  45  48
ENDBRANCH  41  42
ENDBRANCH  16  41
ENDBRANCH  13  16
ENDBRANCH  11  12
BRANCH  11  50
ATOM     50  CB  SER A   6      -6.333  -2.833  60.943  0.00  0.00    +0.166 C 
BRANCH  50  51
ATOM     51  OG  SER A   6      -7.369  -3.696  60.494  0.00  0.00    -0.380 OA
ATOM     52  H   SER A   6      -6.976  -4.431  59.960  0.00  0.00    +0.211 HD
ENDBRANCH  50  51
ENDBRANCH  11  50
ENDBRANCH   8  11
ENDBRANCH   5   7
ENDBRANCH   2   5
BRANCH   1  53
ATOM     53  CA  THR A   4      -0.415  -5.207  56.863  0.00  0.00    +0.176 C 
BRANCH  53  55
ATOM     54  C   TYR A   3       1.034  -5.977  55.089  0.00  0.00    +0.241 C 
ATOM     55  N   THR A   4      -0.143  -6.048  55.697  0.00  0.00    -0.295 N 
ATOM     56  H   THR A   4      -0.872  -6.701  55.345  0.00  0.00    +0.150 HD
ATOM     57  O   TYR A   3       2.018  -5.447  55.600  0.00  0.00    -0.273 OA
BRANCH  54  58
ATOM     58  CA  TYR A   3       1.116  -6.542  53.672  0.00  0.00    +0.153 C 
BRANCH  58  60
ATOM     59  C   GLN A   2       1.055  -8.895  53.060  0.00  0.00    +0.241 C 
ATOM     60  N   TYR A   3       0.425  -7.819  53.514  0.00  0.00    -0.297 N 
ATOM     61  H   TYR A   3      -0.583  -7.886  53.763  0.00  0.00    +0.150 HD
ATOM     62  O   GLN A   2       2.245  -8.895  52.749  0.00  0.00    -0.273 OA
BRANCH  59  63
ATOM     63  CA  GLN A   2       0.226 -10.151  52.891  0.00  0.00    +0.149 C 
BRANCH  63  65
ATOM     64  C   ASN A   1      -0.830 -10.657  50.741  0.00  0.00    +0.239 C 
ATOM     65  N   GLN A   2       0.267 -10.540  51.483  0.00  0.00    -0.297 N 
ATOM     66  H   GLN A   2       1.190 -10.733  51.044  0.00  0.00    +0.150 HD
ATOM     67  O   ASN A   1      -1.945 -10.311  51.126  0.00  0.00    -0.274 OA
BRANCH  64  68
ATOM     68  CA  ASN A   1      -0.642 -11.257  49.343  0.00  0.00    +0.154 C 
BRANCH  68  69
ATOM     69  N   ASN A   1      -1.308 -12.548  49.305  0.00  0.00    -0.238 NA
ATOM     70  H   ASN A   1      -2.299 -12.588  48.991  0.00  0.00    +0.142 HD
ENDBRANCH  68  69
BRANCH  68  71
ATOM     71  CB  ASN A   1      -1.219 -10.312  48.291  0.00  0.00    +0.111 C 
BRANCH  71  72
ATOM     72  CG  ASN A   1      -0.912 -10.753  46.882  0.00  0.00    +0.221 C 
ATOM     73  OD1 ASN A   1      -0.117 -11.674  46.652  0.00  0.00    -0.275 OA
ATOM     74  ND2 ASN A   1      -1.516 -10.081  45.918  0.00  0.00    -0.329 N 
ATOM     75 HD21 ASN A   1      -2.177  -9.314  46.154  0.00  0.00    +0.145 HD
ATOM     76 HD22 ASN A   1      -1.330 -10.319  44.923  0.00  0.00    +0.145 HD
ENDBRANCH  71  72
ENDBRANCH  68  71
ENDBRANCH  64  68
ENDBRANCH  63  65
BRANCH  63  77
ATOM     77  CB  GLN A   2       0.768 -11.286  53.789  0.00  0.00    +0.039 C 
BRANCH  77  78
ATOM     78  CG  GLN A   2       0.143 -11.358  55.188  0.00  0.00    +0.087 C 
BRANCH  78  79
ATOM     79  CD  GLN A   2       0.374 -10.106  56.021  0.00  0.00    +0.219 C 
ATOM     80  NE2 GLN A   2      -0.702  -9.483  56.474  0.00  0.00    -0.329 N 
ATOM     81 HE21 GLN A   2      -0.601  -8.619  57.045  0.00  0.00    +0.145 HD
ATOM     82 HE22 GLN A   2      -1.648  -9.857  56.259  0.00  0.00    +0.145 HD
ATOM     83  OE1 GLN A   2       1.508  -9.708  56.245  0.00  0.00    -0.275 OA
ENDBRANCH  78  79
ENDBRANCH  77  78
ENDBRANCH  63  77
ENDBRANCH  59  63
ENDBRANCH  58  60
BRANCH  58  84
ATOM     84  CB  TYR A   3       0.554  -5.502  52.707  0.00  0.00    +0.055 C 
BRANCH  84  85
ATOM     85  CG  TYR A   3       0.968  -5.696  51.266  0.00  0.00    -0.020 A 
ATOM     86  CD2 TYR A   3       2.177  -5.200  50.805  0.00  0.00    -0.001 A 
ATOM     87  CE2 TYR A   3       2.573  -5.361  49.488  0.00  0.00    +0.036 A 
ATOM     88  CZ  TYR A   3       1.750  -6.045  48.611  0.00  0.00    +0.134 A 
ATOM     89  CE1 TYR A   3       0.538  -6.550  49.046  0.00  0.00    +0.036 A 
ATOM     90  CD1 TYR A   3       0.157  -6.380  50.370  0.00  0.00    -0.001 A 
BRANCH  88  91
ATOM     91  OH  TYR A   3       2.127  -6.198  47.296  0.00  0.00    -0.506 OA
ATOM     92  HH  TYR A   3       1.430  -6.707  46.811  0.00  0.00    +0.292 HD
ENDBRANCH  88  91
ENDBRANCH  84  85
ENDBRANCH  58  84
ENDBRANCH  54  58
ENDBRANCH  53  55
BRANCH  53  93
ATOM     93  CB  THR A   4      -0.775  -3.738  56.431  0.00  0.00    +0.137 C 
ATOM     94  CG2 THR A   4      -2.161  -3.633  55.766  0.00  0.00    +0.034 C 
BRANCH  93  95
ATOM     95  OG1 THR A   4      -0.719  -2.858  57.563  0.00  0.00    -0.382 OA
ATOM     96  HG1 THR A   4       0.195  -2.869  57.943  0.00  0.00    +0.210 HD
ENDBRANCH  93  95
ENDBRANCH  53  93
ENDBRANCH   1  53
TORSDOF 41
REMARK  Name = ../refined-set-2016/4qlk/4qlk_pocket.pdb
REMARK  284 active torsions:
REMARK  status: ('A' for Active; 'I' for Inactive)
REMARK    1  A    between atoms: _1  and  _3
REMARK    2  A    between atoms: _3  and  _4
REMARK    3  A    between atoms: _3  and  _6
REMARK    4  A    between atoms: _9  and  _11
REMARK    5  A    between atoms: _11  and  _12
REMARK    6  A    between atoms: _11  and  _14
REMARK    7  A    between atoms: _14  and  _15
REMARK    8  A    between atoms: _18  and  _20
REMARK    9  A    between atoms: _20  and  _21
REMARK   10  A    between atoms: _20  and  _23
REMARK   11  A    between atoms: _23  and  _24
REMARK   12  A    between atoms: _26  and  _28
REMARK   13  A    between atoms: _28  and  _29
REMARK   14  A    between atoms: _28  and  _31
REMARK   15  A    between atoms: _31  and  _32
REMARK   16  A    between atoms: _32  and  _33
REMARK   17  A    between atoms: _38  and  _40
REMARK   18  A    between atoms: _40  and  _41
REMARK   19  A    between atoms: _40  and  _43
REMARK   20  A    between atoms: _43  and  _44
REMARK   21  A    between atoms: _44  and  _45
REMARK   22  A    between atoms: _45  and  _46
REMARK   23  A    between atoms: _55  and  _57
REMARK   24  A    between atoms: _57  and  _58
REMARK   25  A    between atoms: _57  and  _60
REMARK   26  A    between atoms: _60  and  _61
REMARK   27  A    between atoms: _66  and  _68
REMARK   28  A    between atoms: _68  and  _69
REMARK   29  A    between atoms: _68  and  _71
REMARK   30  A    between atoms: _71  and  _72
REMARK   31  A    between atoms: _77  and  _78
REMARK   32  A    between atoms: _80  and  _82
REMARK   33  A    between atoms: _82  and  _83
REMARK   34  A    between atoms: _82  and  _85
REMARK   35  A    between atoms: _85  and  _86
REMARK   36  A    between atoms: _91  and  _93
REMARK   37  A    between atoms: _93  and  _94
REMARK   38  A    between atoms: _93  and  _96
REMARK   39  A    between atoms: _96  and  _97
REMARK   40  A    between atoms: _97  and  _98
REMARK   41  A    between atoms: _103  and  _105
REMARK   42  A    between atoms: _105  and  _106
REMARK   43  A    between atoms: _105  and  _108
REMARK   44  A    between atoms: _108  and  _109
REMARK   45  A    between atoms: _109  and  _110
REMARK   46  A    between atoms: _110  and  _111
REMARK   47  A    between atoms: _120  and  _122
REMARK   48  A    between atoms: _122  and  _123
REMARK   49  A    between atoms: _122  and  _125
REMARK   50  A    between atoms: _125  and  _126
REMARK   51  A    between atoms: _129  and  _131
REMARK   52  A    between atoms: _131  and  _132
REMARK   53  A    between atoms: _131  and  _134
REMARK   54  A    between atoms: _134  and  _135
REMARK   55  A    between atoms: _138  and  _140
REMARK   56  A    between atoms: _140  and  _141
REMARK   57  A    between atoms: _140  and  _143
REMARK   58  A    between atoms: _143  and  _144
REMARK   59  A    between atoms: _147  and  _149
REMARK   60  A    between atoms: _149  and  _150
REMARK   61  A    between atoms: _149  and  _152
REMARK   62  A    between atoms: _152  and  _153
REMARK   63  A    between atoms: _156  and  _158
REMARK   64  A    between atoms: _158  and  _159
REMARK   65  A    between atoms: _158  and  _161
REMARK   66  A    between atoms: _161  and  _162
REMARK   67  A    between atoms: _162  and  _163
REMARK   68  A    between atoms: _168  and  _170
REMARK   69  A    between atoms: _170  and  _171
REMARK   70  A    between atoms: _170  and  _173
REMARK   71  A    between atoms: _173  and  _174
REMARK   72  A    between atoms: _177  and  _179
REMARK   73  A    between atoms: _179  and  _180
REMARK   74  A    between atoms: _179  and  _182
REMARK   75  A    between atoms: _182  and  _183
REMARK   76  A    between atoms: _188  and  _190
REMARK   77  A    between atoms: _190  and  _191
REMARK   78  A    between atoms: _190  and  _193
REMARK   79  A    between atoms: _196  and  _198
REMARK   80  A    between atoms: _198  and  _199
REMARK   81  A    between atoms: _198  and  _201
REMARK   82  A    between atoms: _201  and  _202
REMARK   83  A    between atoms: _205  and  _207
REMARK   84  A    between atoms: _207  and  _208
REMARK   85  A    between atoms: _207  and  _210
REMARK   86  A    between atoms: _210  and  _211
REMARK   87  A    between atoms: _214  and  _216
REMARK   88  A    between atoms: _216  and  _217
REMARK   89  A    between atoms: _216  and  _219
REMARK   90  A    between atoms: _219  and  _220
REMARK   91  A    between atoms: _226  and  _228
REMARK   92  A    between atoms: _228  and  _229
REMARK   93  A    between atoms: _228  and  _231
REMARK   94  A    between atoms: _231  and  _232
REMARK   95  A    between atoms: _237  and  _239
REMARK   96  A    between atoms: _239  and  _240
REMARK   97  A    between atoms: _239  and  _242
REMARK   98  A    between atoms: _242  and  _243
REMARK   99  A    between atoms: _253  and  _255
REMARK  100  A    between atoms: _255  and  _256
REMARK  101  A    between atoms: _255  and  _258
REMARK  102  A    between atoms: _258  and  _259
REMARK  103  A    between atoms: _264  and  _265
REMARK  104  A    between atoms: _267  and  _269
REMARK  105  A    between atoms: _269  and  _270
REMARK  106  A    between atoms: _273  and  _275
REMARK  107  A    between atoms: _275  and  _276
REMARK  108  A    between atoms: _275  and  _278
REMARK  109  A    between atoms: _278  and  _279
REMARK  110  A    between atoms: _285  and  _287
REMARK  111  A    between atoms: _287  and  _288
REMARK  112  A    between atoms: _287  and  _290
REMARK  113  A    between atoms: _290  and  _291
REMARK  114  A    between atoms: _296  and  _298
REMARK  115  A    between atoms: _298  and  _299
REMARK  116  A    between atoms: _298  and  _301
REMARK  117  A    between atoms: _301  and  _302
REMARK  118  A    between atoms: _307  and  _309
REMARK  119  A    between atoms: _309  and  _310
REMARK  120  A    between atoms: _309  and  _312
REMARK  121  A    between atoms: _312  and  _313
REMARK  122  A    between atoms: _313  and  _314
REMARK  123  A    between atoms: _319  and  _321
REMARK  124  A    between atoms: _321  and  _322
REMARK  125  A    between atoms: _321  and  _324
REMARK  126  A    between atoms: _324  and  _325
REMARK  127  A    between atoms: _330  and  _331
REMARK  128  A    between atoms: _333  and  _335
REMARK  129  A    between atoms: _335  and  _336
REMARK  130  A    between atoms: _335  and  _338
REMARK  131  A    between atoms: _338  and  _339
REMARK  132  A    between atoms: _342  and  _344
REMARK  133  A    between atoms: _344  and  _345
REMARK  134  A    between atoms: _348  and  _350
REMARK  135  A    between atoms: _350  and  _351
REMARK  136  A    between atoms: _350  and  _353
REMARK  137  A    between atoms: _353  and  _354
REMARK  138  A    between atoms: _356  and  _358
REMARK  139  A    between atoms: _358  and  _359
REMARK  140  A    between atoms: _358  and  _361
REMARK  141  A    between atoms: _361  and  _362
REMARK  142  A    between atoms: _367  and  _368
REMARK  143  A    between atoms: _370  and  _372
REMARK  144  A    between atoms: _372  and  _373
REMARK  145  A    between atoms: _372  and  _375
REMARK  146  A    between atoms: _375  and  _376
REMARK  147  A    between atoms: _376  and  _377
REMARK  148  A    between atoms: _379  and  _381
REMARK  149  A    between atoms: _381  and  _382
REMARK  150  A    between atoms: _381  and  _384
REMARK  151  A    between atoms: _384  and  _385
REMARK  152  A    between atoms: _385  and  _386
REMARK  153  A    between atoms: _386  and  _387
REMARK  154  A    between atoms: _387  and  _388
REMARK  155  A    between atoms: _392  and  _394
REMARK  156  A    between atoms: _394  and  _395
REMARK  157  A    between atoms: _394  and  _397
REMARK  158  A    between atoms: _397  and  _398
REMARK  159  A    between atoms: _400  and  _402
REMARK  160  A    between atoms: _402  and  _403
REMARK  161  A    between atoms: _402  and  _405
REMARK  162  A    between atoms: _405  and  _406
REMARK  163  A    between atoms: _411  and  _412
REMARK  164  A    between atoms: _414  and  _416
REMARK  165  A    between atoms: _416  and  _417
REMARK  166  A    between atoms: _416  and  _419
REMARK  167  A    between atoms: _419  and  _420
REMARK  168  A    between atoms: _422  and  _424
REMARK  169  A    between atoms: _424  and  _425
REMARK  170  A    between atoms: _428  and  _430
REMARK  171  A    between atoms: _430  and  _431
REMARK  172  A    between atoms: _430  and  _433
REMARK  173  A    between atoms: _433  and  _434
REMARK  174  A    between atoms: _437  and  _439
REMARK  175  A    between atoms: _439  and  _440
REMARK  176  A    between atoms: _439  and  _442
REMARK  177  A    between atoms: _442  and  _443
REMARK  178  A    between atoms: _453  and  _455
REMARK  179  A    between atoms: _455  and  _456
REMARK  180  A    between atoms: _455  and  _458
REMARK  181  A    between atoms: _458  and  _459
REMARK  182  A    between atoms: _459  and  _460
REMARK  183  A    between atoms: _465  and  _467
REMARK  184  A    between atoms: _467  and  _468
REMARK  185  A    between atoms: _467  and  _470
REMARK  186  A    between atoms: _473  and  _475
REMARK  187  A    between atoms: _475  and  _476
REMARK  188  A    between atoms: _475  and  _478
REMARK  189  A    between atoms: _478  and  _479
REMARK  190  A    between atoms: _482  and  _484
REMARK  191  A    between atoms: _484  and  _485
REMARK  192  A    between atoms: _488  and  _490
REMARK  193  A    between atoms: _490  and  _491
REMARK  194  A    between atoms: _490  and  _493
REMARK  195  A    between atoms: _496  and  _498
REMARK  196  A    between atoms: _498  and  _499
REMARK  197  A    between atoms: _498  and  _501
REMARK  198  A    between atoms: _501  and  _502
REMARK  199  A    between atoms: _508  and  _510
REMARK  200  A    between atoms: _510  and  _511
REMARK  201  A    between atoms: _510  and  _513
REMARK  202  A    between atoms: _513  and  _514
REMARK  203  A    between atoms: _516  and  _518
REMARK  204  A    between atoms: _518  and  _519
REMARK  205  A    between atoms: _518  and  _521
REMARK  206  A    between atoms: _521  and  _522
REMARK  207  A    between atoms: _527  and  _529
REMARK  208  A    between atoms: _529  and  _530
REMARK  209  A    between atoms: _529  and  _532
REMARK  210  A    between atoms: _532  and  _533
REMARK  211  A    between atoms: _543  and  _545
REMARK  212  A    between atoms: _545  and  _546
REMARK  213  A    between atoms: _545  and  _548
REMARK  214  A    between atoms: _548  and  _549
REMARK  215  A    between atoms: _552  and  _554
REMARK  216  A    between atoms: _554  and  _555
REMARK  217  A    between atoms: _554  and  _557
REMARK  218  A    between atoms: _557  and  _558
REMARK  219  A    between atoms: _563  and  _564
REMARK  220  A    between atoms: _566  and  _568
REMARK  221  A    between atoms: _568  and  _569
REMARK  222  A    between atoms: _568  and  _571
REMARK  223  A    between atoms: _571  and  _572
REMARK  224  A    between atoms: _575  and  _577
REMARK  225  A    between atoms: _577  and  _578
REMARK  226  A    between atoms: _577  and  _580
REMARK  227  A    between atoms: _580  and  _581
REMARK  228  A    between atoms: _581  and  _582
REMARK  229  A    between atoms: _585  and  _587
REMARK  230  A    between atoms: _587  and  _588
REMARK  231  A    between atoms: _587  and  _590
REMARK  232  A    between atoms: _590  and  _591
REMARK  233  A    between atoms: _596  and  _598
REMARK  234  A    between atoms: _598  and  _599
REMARK  235  A    between atoms: _601  and  _603
REMARK  236  A    between atoms: _603  and  _604
REMARK  237  A    between atoms: _603  and  _606
REMARK  238  A    between atoms: _606  and  _607
REMARK  239  A    between atoms: _607  and  _608
REMARK  240  A    between atoms: _610  and  _612
REMARK  241  A    between atoms: _612  and  _613
REMARK  242  A    between atoms: _612  and  _615
REMARK  243  A    between atoms: _615  and  _616
REMARK  244  A    between atoms: _619  and  _621
REMARK  245  A    between atoms: _621  and  _622
REMARK  246  A    between atoms: _621  and  _624
REMARK  247  A    between atoms: _624  and  _625
REMARK  248  A    between atoms: _635  and  _637
REMARK  249  A    between atoms: _637  and  _638
REMARK  250  A    between atoms: _637  and  _640
REMARK  251  A    between atoms: _640  and  _641
REMARK  252  A    between atoms: _643  and  _645
REMARK  253  A    between atoms: _645  and  _646
REMARK  254  A    between atoms: _645  and  _648
REMARK  255  A    between atoms: _648  and  _649
REMARK  256  A    between atoms: _654  and  _656
REMARK  257  A    between atoms: _656  and  _657
REMARK  258  A    between atoms: _656  and  _659
REMARK  259  A    between atoms: _659  and  _660
REMARK  260  A    between atoms: _666  and  _668
REMARK  261  A    between atoms: _668  and  _669
REMARK  262  A    between atoms: _668  and  _671
REMARK  263  A    between atoms: _671  and  _672
REMARK  264  A    between atoms: _672  and  _673
REMARK  265  A    between atoms: _676  and  _678
REMARK  266  A    between atoms: _678  and  _679
REMARK  267  A    between atoms: _678  and  _681
REMARK  268  A    between atoms: _681  and  _682
REMARK  269  A    between atoms: _692  and  _694
REMARK  270  A    between atoms: _694  and  _695
REMARK  271  A    between atoms: _694  and  _697
REMARK  272  A    between atoms: _697  and  _698
REMARK  273  A    between atoms: _701  and  _703
REMARK  274  A    between atoms: _703  and  _704
REMARK  275  A    between atoms: _703  and  _706
REMARK  276  A    between atoms: _706  and  _707
REMARK  277  A    between atoms: _709  and  _711
REMARK  278  A    between atoms: _711  and  _712
REMARK  279  A    between atoms: _711  and  _714
REMARK  280  A    between atoms: _714  and  _715
REMARK  281  A    between atoms: _717  and  _719
REMARK  282  A    between atoms: _719  and  _720
REMARK  283  A    between atoms: _719  and  _722
REMARK  284  A    between atoms: _722  and  _723
REMARK                            x       y       z     vdW  Elec       q    Type
REMARK                         _______ _______ _______ _____ _____    ______ ____
ROOT
ATOM      1  CA  TRP A   6     -19.145  -6.116  57.757  0.00  0.00    +0.153 C 
ENDROOT
BRANCH   1   2
ATOM      2  C   TRP A   6     -19.585  -5.736  59.181  0.00  0.00    +0.241 C 
ATOM      3  O   TRP A   6     -19.365  -6.496  60.119  0.00  0.00    -0.273 OA
ATOM      4  N   GLN A   7     -20.149  -4.535  59.332  0.00  0.00    -0.297 N 
ATOM      5  H   GLN A   7     -20.331  -3.961  58.484  0.00  0.00    +0.150 HD
BRANCH   4   6
ATOM      6  CA  GLN A   7     -20.526  -3.986  60.650  0.00  0.00    +0.149 C 
BRANCH   6   7
ATOM      7  C   GLN A   7     -19.367  -4.018  61.658  0.00  0.00    +0.241 C 
ATOM      8  O   GLN A   7     -19.498  -4.522  62.783  0.00  0.00    -0.273 OA
ATOM      9  N   VAL A   8     -18.225  -3.491  61.227  0.00  0.00    -0.297 N 
ATOM     10  H   VAL A   8     -18.177  -3.129  60.253  0.00  0.00    +0.150 HD
BRANCH   9  11
ATOM     11  CA  VAL A   8     -17.039  -3.401  62.067  0.00  0.00    +0.149 C 
BRANCH  11  12
ATOM     12  C   VAL A   8     -16.421  -2.025  61.942  0.00  0.00    +0.241 C 
ATOM     13  N   THR A   9     -15.525  -1.709  62.869  0.00  0.00    -0.295 N 
ATOM     14  H   THR A   9     -15.396  -2.346  63.681  0.00  0.00    +0.150 HD
ATOM     15  O   VAL A   8     -16.746  -1.271  61.027  0.00  0.00    -0.273 OA
BRANCH  13  16
ATOM     16  CA  THR A   9     -14.717  -0.500  62.786  0.00  0.00    +0.176 C 
BRANCH  16  17
ATOM     17  C   THR A   9     -13.232  -0.848  62.857  0.00  0.00    +0.243 C 
ATOM     18  O   THR A   9     -12.755  -1.391  63.851  0.00  0.00    -0.273 OA
ATOM     19  N   ALA A  10     -12.512  -0.529  61.786  0.00  0.00    -0.297 N 
ATOM     20  H   ALA A  10     -13.001  -0.166  60.943  0.00  0.00    +0.150 HD
BRANCH  19  21
ATOM     21  CA  ALA A  10     -11.059  -0.670  61.750  0.00  0.00    +0.149 C 
ATOM     22  CB  ALA A  10     -10.540  -0.528  60.323  0.00  0.00    +0.031 C 
BRANCH  21  23
ATOM     23  C   ALA A  10     -10.412   0.371  62.651  0.00  0.00    +0.241 C 
ATOM     24  N   VAL A  11      -9.444  -0.071  63.445  0.00  0.00    -0.297 N 
ATOM     25  H   VAL A  11      -9.157  -1.068  63.372  0.00  0.00    +0.150 HD
ATOM     26  O   ALA A  10     -10.782   1.543  62.623  0.00  0.00    -0.273 OA
BRANCH  24  27
ATOM     27  CA  VAL A  11      -8.764   0.783  64.417  0.00  0.00    +0.149 C 
BRANCH  27  28
ATOM     28  C   VAL A  11      -7.265   0.542  64.272  0.00  0.00    +0.241 C 
ATOM     29  N   PHE A  12      -6.481   1.616  64.302  0.00  0.00    -0.298 N 
ATOM     30  H   PHE A  12      -6.886   2.536  64.570  0.00  0.00    +0.150 HD
ATOM     31  O   VAL A  11      -6.828  -0.594  64.121  0.00  0.00    -0.273 OA
BRANCH  29  32
ATOM     32  CA  PHE A  12      -5.054   1.527  63.964  0.00  0.00    +0.141 C 
BRANCH  32  33
ATOM     33  C   PHE A  12      -4.119   1.865  65.126  0.00  0.00    +0.227 C 
ATOM     34  O   PHE A  12      -2.917   2.062  64.948  0.00  0.00    -0.286 OA
ENDBRANCH  32  33
BRANCH  32  35
ATOM     35  CB  PHE A  12      -4.779   2.368  62.711  0.00  0.00    +0.054 C 
BRANCH  35  36
ATOM     36  CG  PHE A  12      -5.606   1.940  61.526  0.00  0.00    -0.020 A 
ATOM     37  CD2 PHE A  12      -6.851   2.510  61.291  0.00  0.00    -0.004 A 
ATOM     38  CE2 PHE A  12      -7.631   2.101  60.216  0.00  0.00    -0.000 A 
ATOM     39  CZ  PHE A  12      -7.174   1.098  59.369  0.00  0.00    -0.000 A 
ATOM     40  CE1 PHE A  12      -5.945   0.507  59.606  0.00  0.00    -0.000 A 
ATOM     41  CD1 PHE A  12      -5.168   0.925  60.686  0.00  0.00    -0.004 A 
ENDBRANCH  35  36
ENDBRANCH  32  35
ENDBRANCH  29  32
ENDBRANCH  27  28
BRANCH  27  42
ATOM     42  CB  VAL A  11      -9.247   0.487  65.860  0.00  0.00    +0.027 C 
ATOM     43  CG2 VAL A  11      -8.397   1.221  66.888  0.00  0.00    +0.002 C 
ATOM     44  CG1 VAL A  11     -10.717   0.858  66.022  0.00  0.00    +0.002 C 
ENDBRANCH  27  42
ENDBRANCH  24  27
ENDBRANCH  21  23
ENDBRANCH  19  21
ENDBRANCH  16  17
BRANCH  16  45
ATOM     45  CB  THR A   9     -15.078   0.498  63.900  0.00  0.00    +0.137 C 
ATOM     46  CG2 THR A   9     -14.324   1.808  63.732  0.00  0.00    +0.034 C 
BRANCH  45  47
ATOM     47  OG1 THR A   9     -16.480   0.756  63.845  0.00  0.00    -0.382 OA
ATOM     48  HG1 THR A   9     -16.724   1.398  64.558  0.00  0.00    +0.210 HD
ENDBRANCH  45  47
ENDBRANCH  16  45
ENDBRANCH  13  16
ENDBRANCH  11  12
BRANCH  11  49
ATOM     49  CB  VAL A   8     -15.968  -4.479  61.718  0.00  0.00    +0.027 C 
ATOM     50  CG2 VAL A   8     -16.531  -5.882  61.906  0.00  0.00    +0.002 C 
ATOM     51  CG1 VAL A   8     -15.424  -4.287  60.310  0.00  0.00    +0.002 C 
ENDBRANCH  11  49
ENDBRANCH   9  11
ENDBRANCH   6   7
BRANCH   6  52
ATOM     52  CB  GLN A   7     -21.772  -4.678  61.215  0.00  0.00    +0.039 C 
BRANCH  52  53
ATOM     53  CG  GLN A   7     -22.985  -4.561  60.305  0.00  0.00    +0.087 C 
BRANCH  53  54
ATOM     54  CD  GLN A   7     -24.297  -4.920  60.990  0.00  0.00    +0.219 C 
ATOM     55  OE1 GLN A   7     -24.538  -4.542  62.133  0.00  0.00    -0.275 OA
ATOM     56  NE2 GLN A   7     -25.157  -5.643  60.280  0.00  0.00    -0.329 N 
ATOM     57 HE21 GLN A   7     -26.075  -5.910  60.690  0.00  0.00    +0.145 HD
ATOM     58 HE22 GLN A   7     -24.912  -5.942  59.315  0.00  0.00    +0.145 HD
ENDBRANCH  53  54
ENDBRANCH  52  53
ENDBRANCH   6  52
ENDBRANCH   4   6
ENDBRANCH   1   2
BRANCH   1  61
ATOM     59  C   ASP A   5     -21.268  -5.758  56.569  0.00  0.00    +0.241 C 
ATOM     60  O   ASP A   5     -21.882  -6.546  57.284  0.00  0.00    -0.273 OA
ATOM     61  N   TRP A   6     -19.972  -5.470  56.734  0.00  0.00    -0.297 N 
ATOM     62  H   TRP A   6     -19.535  -4.760  56.112  0.00  0.00    +0.150 HD
BRANCH  59  63
ATOM     63  CA  ASP A   5     -22.004  -5.075  55.409  0.00  0.00    +0.160 C 
BRANCH  63  66
ATOM     64  C   ALA A   4     -21.360  -2.744  55.851  0.00  0.00    +0.241 C 
ATOM     65  O   ALA A   4     -21.742  -2.804  57.015  0.00  0.00    -0.273 OA
ATOM     66  N   ASP A   5     -21.441  -3.779  55.013  0.00  0.00    -0.297 N 
ATOM     67  H   ASP A   5     -21.091  -3.663  54.041  0.00  0.00    +0.150 HD
BRANCH  64  68
ATOM     68  CA  ALA A   4     -20.721  -1.445  55.309  0.00  0.00    +0.149 C 
ATOM     69  CB  ALA A   4     -21.789  -0.413  54.949  0.00  0.00    +0.031 C 
BRANCH  68  72
ATOM     70  C   SER A   3     -18.669  -2.312  54.316  0.00  0.00    +0.243 C 
ATOM     71  O   SER A   3     -18.279  -2.728  55.413  0.00  0.00    -0.273 OA
ATOM     72  N   ALA A   4     -19.834  -1.701  54.160  0.00  0.00    -0.297 N 
ATOM     73  H   ALA A   4     -20.128  -1.397  53.210  0.00  0.00    +0.150 HD
BRANCH  70  74
ATOM     74  CA  SER A   3     -17.825  -2.509  53.044  0.00  0.00    +0.178 C 
BRANCH  74  77
ATOM     75  C   TYR A   2     -19.276  -4.155  51.963  0.00  0.00    +0.241 C 
ATOM     76  O   TYR A   2     -19.301  -4.853  52.967  0.00  0.00    -0.273 OA
ATOM     77  N   SER A   3     -18.631  -2.996  51.911  0.00  0.00    -0.295 N 
ATOM     78  H   SER A   3     -18.696  -2.417  51.049  0.00  0.00    +0.150 HD
BRANCH  75  79
ATOM     79  CA  TYR A   2     -20.024  -4.595  50.703  0.00  0.00    +0.153 C 
BRANCH  79  82
ATOM     80  C   SER A   1     -21.642  -2.776  51.022  0.00  0.00    +0.241 C 
ATOM     81  O   SER A   1     -21.858  -3.062  52.196  0.00  0.00    -0.274 OA
ATOM     82  N   TYR A   2     -20.875  -3.502  50.207  0.00  0.00    -0.297 N 
ATOM     83  H   TYR A   2     -20.879  -3.289  49.189  0.00  0.00    +0.150 HD
BRANCH  80  84
ATOM     84  CA  SER A   1     -22.253  -1.534  50.408  0.00  0.00    +0.174 C 
BRANCH  84  85
ATOM     85  N   SER A   1     -23.477  -1.091  51.079  0.00  0.00    -0.236 NA
ATOM     86  H   SER A   1     -23.697  -1.437  52.035  0.00  0.00    +0.142 HD
ENDBRANCH  84  85
BRANCH  84  87
ATOM     87  CB  SER A   1     -21.214  -0.427  50.414  0.00  0.00    +0.163 C 
BRANCH  87  88
ATOM     88  OG  SER A   1     -20.685  -0.230  51.708  0.00  0.00    -0.380 OA
ATOM     89  H   SER A   1     -20.257  -1.067  52.019  0.00  0.00    +0.211 HD
ENDBRANCH  87  88
ENDBRANCH  84  87
ENDBRANCH  80  84
ENDBRANCH  79  82
BRANCH  79  90
ATOM     90  CB  TYR A   2     -19.053  -5.068  49.617  0.00  0.00    +0.055 C 
BRANCH  90  91
ATOM     91  CG  TYR A   2     -17.821  -5.814  50.106  0.00  0.00    -0.020 A 
ATOM     92  CD2 TYR A   2     -17.912  -7.089  50.647  0.00  0.00    -0.001 A 
ATOM     93  CE2 TYR A   2     -16.770  -7.776  51.075  0.00  0.00    +0.036 A 
ATOM     94  CZ  TYR A   2     -15.510  -7.175  50.965  0.00  0.00    +0.134 A 
ATOM     95  CE1 TYR A   2     -15.401  -5.916  50.411  0.00  0.00    +0.036 A 
ATOM     96  CD1 TYR A   2     -16.545  -5.246  49.985  0.00  0.00    -0.001 A 
BRANCH  94  97
ATOM     97  OH  TYR A   2     -14.370  -7.844  51.377  0.00  0.00    -0.506 OA
ATOM     98  HH  TYR A   2     -14.623  -8.726  51.748  0.00  0.00    +0.292 HD
ENDBRANCH  94  97
ENDBRANCH  90  91
ENDBRANCH  79  90
ENDBRANCH  75  79
ENDBRANCH  74  77
BRANCH  74  99
ATOM     99  CB  SER A   3     -17.120  -1.206  52.680  0.00  0.00    +0.166 C 
BRANCH  99 100
ATOM    100  OG  SER A   3     -16.223  -1.402  51.598  0.00  0.00    -0.380 OA
ATOM    101  H   SER A   3     -15.541  -2.073  51.853  0.00  0.00    +0.211 HD
ENDBRANCH  99 100
ENDBRANCH  74  99
ENDBRANCH  70  74
ENDBRANCH  68  72
ENDBRANCH  64  68
ENDBRANCH  63  66
BRANCH  63 102
ATOM    102  CB  ASP A   5     -22.054  -6.059  54.226  0.00  0.00    +0.143 C 
BRANCH 102 103
ATOM    103  CG  ASP A   5     -23.222  -5.795  53.269  0.00  0.00    +0.367 C 
ATOM    104  OD2 ASP A   5     -24.227  -5.151  53.674  0.00  0.00    -0.246 OA
ATOM    105  OD1 ASP A   5     -23.135  -6.244  52.101  0.00  0.00    -0.246 OA
ENDBRANCH 102 103
ENDBRANCH  63 102
ENDBRANCH  59  63
ENDBRANCH   1  61
BRANCH   1 106
ATOM    106  CB  TRP A   6     -17.669  -5.709  57.645  0.00  0.00    +0.057 C 
BRANCH 106 107
ATOM    107  CG  TRP A   6     -16.944  -5.984  56.354  0.00  0.00    -0.002 A 
ATOM    108  CD2 TRP A   6     -15.528  -6.097  56.199  0.00  0.00    +0.013 A 
ATOM    109  CE3 TRP A   6     -14.451  -6.049  57.092  0.00  0.00    +0.001 A 
ATOM    110  CZ3 TRP A   6     -13.167  -6.214  56.593  0.00  0.00    +0.000 A 
ATOM    111  CH2 TRP A   6     -12.943  -6.425  55.219  0.00  0.00    +0.001 A 
ATOM    112  CZ2 TRP A   6     -13.976  -6.472  54.326  0.00  0.00    +0.017 A 
ATOM    113  CE2 TRP A   6     -15.269  -6.298  54.826  0.00  0.00    +0.056 A 
ATOM    114  NE1 TRP A   6     -16.476  -6.304  54.181  0.00  0.00    -0.352 N 
ATOM    115  HE1 TRP A   6     -16.615  -6.437  53.159  0.00  0.00    +0.166 HD
ATOM    116  CD1 TRP A   6     -17.474  -6.105  55.105  0.00  0.00    +0.068 A 
ENDBRANCH 106 107
ENDBRANCH   1 106
TORSDOF 44
REMARK  Name = ../refined-set-2016/4qlk/4qlk_pocket.pdb
REMARK  284 active torsions:
REMARK  status: ('A' for Active; 'I' for Inactive)
REMARK    1  A    between atoms: _1  and  _3
REMARK    2  A    between atoms: _3  and  _4
REMARK    3  A    between atoms: _3  and  _6
REMARK    4  A    between atoms: _9  and  _11
REMARK    5  A    between atoms: _11  and  _12
REMARK    6  A    between atoms: _11  and  _14
REMARK    7  A    between atoms: _14  and  _15
REMARK    8  A    between atoms: _18  and  _20
REMARK    9  A    between atoms: _20  and  _21
REMARK   10  A    between atoms: _20  and  _23
REMARK   11  A    between atoms: _23  and  _24
REMARK   12  A    between atoms: _26  and  _28
REMARK   13  A    between atoms: _28  and  _29
REMARK   14  A    between atoms: _28  and  _31
REMARK   15  A    between atoms: _31  and  _32
REMARK   16  A    between atoms: _32  and  _33
REMARK   17  A    between atoms: _38  and  _40
REMARK   18  A    between atoms: _40  and  _41
REMARK   19  A    between atoms: _40  and  _43
REMARK   20  A    between atoms: _43  and  _44
REMARK   21  A    between atoms: _44  and  _45
REMARK   22  A    between atoms: _45  and  _46
REMARK   23  A    between atoms: _55  and  _57
REMARK   24  A    between atoms: _57  and  _58
REMARK   25  A    between atoms: _57  and  _60
REMARK   26  A    between atoms: _60  and  _61
REMARK   27  A    between atoms: _66  and  _68
REMARK   28  A    between atoms: _68  and  _69
REMARK   29  A    between atoms: _68  and  _71
REMARK   30  A    between atoms: _71  and  _72
REMARK   31  A    between atoms: _77  and  _78
REMARK   32  A    between atoms: _80  and  _82
REMARK   33  A    between atoms: _82  and  _83
REMARK   34  A    between atoms: _82  and  _85
REMARK   35  A    between atoms: _85  and  _86
REMARK   36  A    between atoms: _91  and  _93
REMARK   37  A    between atoms: _93  and  _94
REMARK   38  A    between atoms: _93  and  _96
REMARK   39  A    between atoms: _96  and  _97
REMARK   40  A    between atoms: _97  and  _98
REMARK   41  A    between atoms: _103  and  _105
REMARK   42  A    between atoms: _105  and  _106
REMARK   43  A    between atoms: _105  and  _108
REMARK   44  A    between atoms: _108  and  _109
REMARK   45  A    between atoms: _109  and  _110
REMARK   46  A    between atoms: _110  and  _111
REMARK   47  A    between atoms: _120  and  _122
REMARK   48  A    between atoms: _122  and  _123
REMARK   49  A    between atoms: _122  and  _125
REMARK   50  A    between atoms: _125  and  _126
REMARK   51  A    between atoms: _129  and  _131
REMARK   52  A    between atoms: _131  and  _132
REMARK   53  A    between atoms: _131  and  _134
REMARK   54  A    between atoms: _134  and  _135
REMARK   55  A    between atoms: _138  and  _140
REMARK   56  A    between atoms: _140  and  _141
REMARK   57  A    between atoms: _140  and  _143
REMARK   58  A    between atoms: _143  and  _144
REMARK   59  A    between atoms: _147  and  _149
REMARK   60  A    between atoms: _149  and  _150
REMARK   61  A    between atoms: _149  and  _152
REMARK   62  A    between atoms: _152  and  _153
REMARK   63  A    between atoms: _156  and  _158
REMARK   64  A    between atoms: _158  and  _159
REMARK   65  A    between atoms: _158  and  _161
REMARK   66  A    between atoms: _161  and  _162
REMARK   67  A    between atoms: _162  and  _163
REMARK   68  A    between atoms: _168  and  _170
REMARK   69  A    between atoms: _170  and  _171
REMARK   70  A    between atoms: _170  and  _173
REMARK   71  A    between atoms: _173  and  _174
REMARK   72  A    between atoms: _177  and  _179
REMARK   73  A    between atoms: _179  and  _180
REMARK   74  A    between atoms: _179  and  _182
REMARK   75  A    between atoms: _182  and  _183
REMARK   76  A    between atoms: _188  and  _190
REMARK   77  A    between atoms: _190  and  _191
REMARK   78  A    between atoms: _190  and  _193
REMARK   79  A    between atoms: _196  and  _198
REMARK   80  A    between atoms: _198  and  _199
REMARK   81  A    between atoms: _198  and  _201
REMARK   82  A    between atoms: _201  and  _202
REMARK   83  A    between atoms: _205  and  _207
REMARK   84  A    between atoms: _207  and  _208
REMARK   85  A    between atoms: _207  and  _210
REMARK   86  A    between atoms: _210  and  _211
REMARK   87  A    between atoms: _214  and  _216
REMARK   88  A    between atoms: _216  and  _217
REMARK   89  A    between atoms: _216  and  _219
REMARK   90  A    between atoms: _219  and  _220
REMARK   91  A    between atoms: _226  and  _228
REMARK   92  A    between atoms: _228  and  _229
REMARK   93  A    between atoms: _228  and  _231
REMARK   94  A    between atoms: _231  and  _232
REMARK   95  A    between atoms: _237  and  _239
REMARK   96  A    between atoms: _239  and  _240
REMARK   97  A    between atoms: _239  and  _242
REMARK   98  A    between atoms: _242  and  _243
REMARK   99  A    between atoms: _253  and  _255
REMARK  100  A    between atoms: _255  and  _256
REMARK  101  A    between atoms: _255  and  _258
REMARK  102  A    between atoms: _258  and  _259
REMARK  103  A    between atoms: _264  and  _265
REMARK  104  A    between atoms: _267  and  _269
REMARK  105  A    between atoms: _269  and  _270
REMARK  106  A    between atoms: _273  and  _275
REMARK  107  A    between atoms: _275  and  _276
REMARK  108  A    between atoms: _275  and  _278
REMARK  109  A    between atoms: _278  and  _279
REMARK  110  A    between atoms: _285  and  _287
REMARK  111  A    between atoms: _287  and  _288
REMARK  112  A    between atoms: _287  and  _290
REMARK  113  A    between atoms: _290  and  _291
REMARK  114  A    between atoms: _296  and  _298
REMARK  115  A    between atoms: _298  and  _299
REMARK  116  A    between atoms: _298  and  _301
REMARK  117  A    between atoms: _301  and  _302
REMARK  118  A    between atoms: _307  and  _309
REMARK  119  A    between atoms: _309  and  _310
REMARK  120  A    between atoms: _309  and  _312
REMARK  121  A    between atoms: _312  and  _313
REMARK  122  A    between atoms: _313  and  _314
REMARK  123  A    between atoms: _319  and  _321
REMARK  124  A    between atoms: _321  and  _322
REMARK  125  A    between atoms: _321  and  _324
REMARK  126  A    between atoms: _324  and  _325
REMARK  127  A    between atoms: _330  and  _331
REMARK  128  A    between atoms: _333  and  _335
REMARK  129  A    between atoms: _335  and  _336
REMARK  130  A    between atoms: _335  and  _338
REMARK  131  A    between atoms: _338  and  _339
REMARK  132  A    between atoms: _342  and  _344
REMARK  133  A    between atoms: _344  and  _345
REMARK  134  A    between atoms: _348  and  _350
REMARK  135  A    between atoms: _350  and  _351
REMARK  136  A    between atoms: _350  and  _353
REMARK  137  A    between atoms: _353  and  _354
REMARK  138  A    between atoms: _356  and  _358
REMARK  139  A    between atoms: _358  and  _359
REMARK  140  A    between atoms: _358  and  _361
REMARK  141  A    between atoms: _361  and  _362
REMARK  142  A    between atoms: _367  and  _368
REMARK  143  A    between atoms: _370  and  _372
REMARK  144  A    between atoms: _372  and  _373
REMARK  145  A    between atoms: _372  and  _375
REMARK  146  A    between atoms: _375  and  _376
REMARK  147  A    between atoms: _376  and  _377
REMARK  148  A    between atoms: _379  and  _381
REMARK  149  A    between atoms: _381  and  _382
REMARK  150  A    between atoms: _381  and  _384
REMARK  151  A    between atoms: _384  and  _385
REMARK  152  A    between atoms: _385  and  _386
REMARK  153  A    between atoms: _386  and  _387
REMARK  154  A    between atoms: _387  and  _388
REMARK  155  A    between atoms: _392  and  _394
REMARK  156  A    between atoms: _394  and  _395
REMARK  157  A    between atoms: _394  and  _397
REMARK  158  A    between atoms: _397  and  _398
REMARK  159  A    between atoms: _400  and  _402
REMARK  160  A    between atoms: _402  and  _403
REMARK  161  A    between atoms: _402  and  _405
REMARK  162  A    between atoms: _405  and  _406
REMARK  163  A    between atoms: _411  and  _412
REMARK  164  A    between atoms: _414  and  _416
REMARK  165  A    between atoms: _416  and  _417
REMARK  166  A    between atoms: _416  and  _419
REMARK  167  A    between atoms: _419  and  _420
REMARK  168  A    between atoms: _422  and  _424
REMARK  169  A    between atoms: _424  and  _425
REMARK  170  A    between atoms: _428  and  _430
REMARK  171  A    between atoms: _430  and  _431
REMARK  172  A    between atoms: _430  and  _433
REMARK  173  A    between atoms: _433  and  _434
REMARK  174  A    between atoms: _437  and  _439
REMARK  175  A    between atoms: _439  and  _440
REMARK  176  A    between atoms: _439  and  _442
REMARK  177  A    between atoms: _442  and  _443
REMARK  178  A    between atoms: _453  and  _455
REMARK  179  A    between atoms: _455  and  _456
REMARK  180  A    between atoms: _455  and  _458
REMARK  181  A    between atoms: _458  and  _459
REMARK  182  A    between atoms: _459  and  _460
REMARK  183  A    between atoms: _465  and  _467
REMARK  184  A    between atoms: _467  and  _468
REMARK  185  A    between atoms: _467  and  _470
REMARK  186  A    between atoms: _473  and  _475
REMARK  187  A    between atoms: _475  and  _476
REMARK  188  A    between atoms: _475  and  _478
REMARK  189  A    between atoms: _478  and  _479
REMARK  190  A    between atoms: _482  and  _484
REMARK  191  A    between atoms: _484  and  _485
REMARK  192  A    between atoms: _488  and  _490
REMARK  193  A    between atoms: _490  and  _491
REMARK  194  A    between atoms: _490  and  _493
REMARK  195  A    between atoms: _496  and  _498
REMARK  196  A    between atoms: _498  and  _499
REMARK  197  A    between atoms: _498  and  _501
REMARK  198  A    between atoms: _501  and  _502
REMARK  199  A    between atoms: _508  and  _510
REMARK  200  A    between atoms: _510  and  _511
REMARK  201  A    between atoms: _510  and  _513
REMARK  202  A    between atoms: _513  and  _514
REMARK  203  A    between atoms: _516  and  _518
REMARK  204  A    between atoms: _518  and  _519
REMARK  205  A    between atoms: _518  and  _521
REMARK  206  A    between atoms: _521  and  _522
REMARK  207  A    between atoms: _527  and  _529
REMARK  208  A    between atoms: _529  and  _530
REMARK  209  A    between atoms: _529  and  _532
REMARK  210  A    between atoms: _532  and  _533
REMARK  211  A    between atoms: _543  and  _545
REMARK  212  A    between atoms: _545  and  _546
REMARK  213  A    between atoms: _545  and  _548
REMARK  214  A    between atoms: _548  and  _549
REMARK  215  A    between atoms: _552  and  _554
REMARK  216  A    between atoms: _554  and  _555
REMARK  217  A    between atoms: _554  and  _557
REMARK  218  A    between atoms: _557  and  _558
REMARK  219  A    between atoms: _563  and  _564
REMARK  220  A    between atoms: _566  and  _568
REMARK  221  A    between atoms: _568  and  _569
REMARK  222  A    between atoms: _568  and  _571
REMARK  223  A    between atoms: _571  and  _572
REMARK  224  A    between atoms: _575  and  _577
REMARK  225  A    between atoms: _577  and  _578
REMARK  226  A    between atoms: _577  and  _580
REMARK  227  A    between atoms: _580  and  _581
REMARK  228  A    between atoms: _581  and  _582
REMARK  229  A    between atoms: _585  and  _587
REMARK  230  A    between atoms: _587  and  _588
REMARK  231  A    between atoms: _587  and  _590
REMARK  232  A    between atoms: _590  and  _591
REMARK  233  A    between atoms: _596  and  _598
REMARK  234  A    between atoms: _598  and  _599
REMARK  235  A    between atoms: _601  and  _603
REMARK  236  A    between atoms: _603  and  _604
REMARK  237  A    between atoms: _603  and  _606
REMARK  238  A    between atoms: _606  and  _607
REMARK  239  A    between atoms: _607  and  _608
REMARK  240  A    between atoms: _610  and  _612
REMARK  241  A    between atoms: _612  and  _613
REMARK  242  A    between atoms: _612  and  _615
REMARK  243  A    between atoms: _615  and  _616
REMARK  244  A    between atoms: _619  and  _621
REMARK  245  A    between atoms: _621  and  _622
REMARK  246  A    between atoms: _621  and  _624
REMARK  247  A    between atoms: _624  and  _625
REMARK  248  A    between atoms: _635  and  _637
REMARK  249  A    between atoms: _637  and  _638
REMARK  250  A    between atoms: _637  and  _640
REMARK  251  A    between atoms: _640  and  _641
REMARK  252  A    between atoms: _643  and  _645
REMARK  253  A    between atoms: _645  and  _646
REMARK  254  A    between atoms: _645  and  _648
REMARK  255  A    between atoms: _648  and  _649
REMARK  256  A    between atoms: _654  and  _656
REMARK  257  A    between atoms: _656  and  _657
REMARK  258  A    between atoms: _656  and  _659
REMARK  259  A    between atoms: _659  and  _660
REMARK  260  A    between atoms: _666  and  _668
REMARK  261  A    between atoms: _668  and  _669
REMARK  262  A    between atoms: _668  and  _671
REMARK  263  A    between atoms: _671  and  _672
REMARK  264  A    between atoms: _672  and  _673
REMARK  265  A    between atoms: _676  and  _678
REMARK  266  A    between atoms: _678  and  _679
REMARK  267  A    between atoms: _678  and  _681
REMARK  268  A    between atoms: _681  and  _682
REMARK  269  A    between atoms: _692  and  _694
REMARK  270  A    between atoms: _694  and  _695
REMARK  271  A    between atoms: _694  and  _697
REMARK  272  A    between atoms: _697  and  _698
REMARK  273  A    between atoms: _701  and  _703
REMARK  274  A    between atoms: _703  and  _704
REMARK  275  A    between atoms: _703  and  _706
REMARK  276  A    between atoms: _706  and  _707
REMARK  277  A    between atoms: _709  and  _711
REMARK  278  A    between atoms: _711  and  _712
REMARK  279  A    between atoms: _711  and  _714
REMARK  280  A    between atoms: _714  and  _715
REMARK  281  A    between atoms: _717  and  _719
REMARK  282  A    between atoms: _719  and  _720
REMARK  283  A    between atoms: _719  and  _722
REMARK  284  A    between atoms: _722  and  _723
REMARK                            x       y       z     vdW  Elec       q    Type
REMARK                         _______ _______ _______ _____ _____    ______ ____
ROOT
ATOM      1  CA  TRP A   3      -3.052   1.776  54.044  0.00  0.00    +0.153 C 
ENDROOT
BRANCH   1   4
ATOM      2  C   ASN A   2      -2.088   4.000  54.424  0.00  0.00    +0.241 C 
ATOM      3  O   ASN A   2      -2.221   3.916  55.645  0.00  0.00    -0.273 OA
ATOM      4  N   TRP A   3      -2.472   3.045  53.582  0.00  0.00    -0.297 N 
ATOM      5  H   TRP A   3      -2.358   3.202  52.560  0.00  0.00    +0.150 HD
BRANCH   2   6
ATOM      6  CA  ASN A   2      -1.473   5.248  53.783  0.00  0.00    +0.158 C 
BRANCH   6   9
ATOM      7  C   SER A   1       0.275   4.166  52.452  0.00  0.00    +0.241 C 
ATOM      8  O   SER A   1       0.707   3.557  53.431  0.00  0.00    -0.274 OA
ATOM      9  N   ASN A   2      -0.800   4.947  52.498  0.00  0.00    -0.297 N 
ATOM     10  H   ASN A   2      -1.175   5.353  51.617  0.00  0.00    +0.150 HD
BRANCH   7  11
ATOM     11  CA  SER A   1       0.988   4.063  51.104  0.00  0.00    +0.174 C 
BRANCH  11  12
ATOM     12  N   SER A   1       2.417   4.287  51.304  0.00  0.00    -0.236 NA
ATOM     13  H   SER A   1       3.071   3.481  51.240  0.00  0.00    +0.142 HD
ENDBRANCH  11  12
BRANCH  11  14
ATOM     14  CB  SER A   1       0.702   2.715  50.449  0.00  0.00    +0.163 C 
BRANCH  14  15
ATOM     15  OG  SER A   1       1.167   2.682  49.108  0.00  0.00    -0.380 OA
ATOM     16  H   SER A   1       2.145   2.837  49.095  0.00  0.00    +0.211 HD
ENDBRANCH  14  15
ENDBRANCH  11  14
ENDBRANCH   7  11
ENDBRANCH   6   9
BRANCH   6  17
ATOM     17  CB  ASN A   2      -2.566   6.298  53.607  0.00  0.00    +0.114 C 
BRANCH  17  18
ATOM     18  CG  ASN A   2      -2.037   7.643  53.142  0.00  0.00    +0.222 C 
ATOM     19  OD1 ASN A   2      -0.842   7.941  53.242  0.00  0.00    -0.275 OA
ATOM     20  ND2 ASN A   2      -2.941   8.477  52.642  0.00  0.00    -0.329 N 
ATOM     21 HD21 ASN A   2      -3.937   8.185  52.576  0.00  0.00    +0.145 HD
ATOM     22 HD22 ASN A   2      -2.653   9.422  52.316  0.00  0.00    +0.145 HD
ENDBRANCH  17  18
ENDBRANCH   6  17
ENDBRANCH   2   6
ENDBRANCH   1   4
BRANCH   1  23
ATOM     23  C   TRP A   3      -2.018   0.790  54.597  0.00  0.00    +0.241 C 
ATOM     24  O   TRP A   3      -2.379  -0.190  55.234  0.00  0.00    -0.273 OA
ATOM     25  N   LEU A   4      -0.738   1.039  54.343  0.00  0.00    -0.297 N 
ATOM     26  H   LEU A   4      -0.468   1.952  53.924  0.00  0.00    +0.150 HD
BRANCH  25  27
ATOM     27  CA  LEU A   4       0.306   0.045  54.645  0.00  0.00    +0.149 C 
BRANCH  27  28
ATOM     28  C   LEU A   4       0.993   0.354  55.975  0.00  0.00    +0.241 C 
ATOM     29  N   TYR A   5       0.467  -0.228  57.046  0.00  0.00    -0.298 N 
ATOM     30  H   TYR A   5      -0.419  -0.763  56.940  0.00  0.00    +0.150 HD
ATOM     31  O   LEU A   4       1.946   1.118  56.032  0.00  0.00    -0.273 OA
BRANCH  29  32
ATOM     32  CA  TYR A   5       1.083  -0.146  58.363  0.00  0.00    +0.141 C 
BRANCH  32  33
ATOM     33  C   TYR A   5       2.082  -1.298  58.472  0.00  0.00    +0.227 C 
ATOM     34  O   TYR A   5       1.759  -2.423  58.139  0.00  0.00    -0.286 OA
ENDBRANCH  32  33
BRANCH  32  35
ATOM     35  CB  TYR A   5       0.016  -0.227  59.473  0.00  0.00    +0.054 C 
BRANCH  35  36
ATOM     36  CG  TYR A   5      -0.958   0.927  59.433  0.00  0.00    -0.020 A 
ATOM     37  CD2 TYR A   5      -0.817   2.026  60.278  0.00  0.00    -0.001 A 
ATOM     38  CE2 TYR A   5      -1.706   3.091  60.218  0.00  0.00    +0.036 A 
ATOM     39  CZ  TYR A   5      -2.735   3.060  59.301  0.00  0.00    +0.134 A 
ATOM     40  CE1 TYR A   5      -2.899   1.990  58.458  0.00  0.00    +0.036 A 
ATOM     41  CD1 TYR A   5      -2.012   0.931  58.525  0.00  0.00    -0.001 A 
BRANCH  39  42
ATOM     42  OH  TYR A   5      -3.623   4.089  59.226  0.00  0.00    -0.506 OA
ATOM     43  HH  TYR A   5      -4.085   4.189  60.096  0.00  0.00    +0.292 HD
ENDBRANCH  39  42
ENDBRANCH  35  36
ENDBRANCH  32  35
ENDBRANCH  29  32
ENDBRANCH  27  28
BRANCH  27  44
ATOM     44  CB  LEU A   4       1.333  -0.035  53.503  0.00  0.00    +0.029 C 
BRANCH  44  45
ATOM     45  CG  LEU A   4       2.092  -1.361  53.350  0.00  0.00    +0.002 C 
ATOM     46  CD2 LEU A   4       3.008  -1.659  54.519  0.00  0.00    +0.000 C 
ATOM     47  CD1 LEU A   4       2.885  -1.345  52.061  0.00  0.00    +0.000 C 
ENDBRANCH  44  45
ENDBRANCH  27  44
ENDBRANCH  25  27
ENDBRANCH   1  23
BRANCH   1  48
ATOM     48  CB  TRP A   3      -3.843   1.106  52.917  0.00  0.00    +0.057 C 
BRANCH  48  49
ATOM     49  CG  TRP A   3      -3.059   0.847  51.679  0.00  0.00    -0.002 A 
ATOM     50  CD2 TRP A   3      -2.202  -0.269  51.418  0.00  0.00    +0.013 A 
ATOM     51  CE3 TRP A   3      -1.847  -1.415  52.143  0.00  0.00    +0.001 A 
ATOM     52  CZ3 TRP A   3      -0.968  -2.324  51.562  0.00  0.00    +0.000 A 
ATOM     53  CH2 TRP A   3      -0.456  -2.114  50.282  0.00  0.00    +0.001 A 
ATOM     54  CZ2 TRP A   3      -0.796  -1.008  49.540  0.00  0.00    +0.017 A 
ATOM     55  CE2 TRP A   3      -1.673  -0.091  50.124  0.00  0.00    +0.056 A 
ATOM     56  NE1 TRP A   3      -2.193   1.071  49.624  0.00  0.00    -0.352 N 
ATOM     57  HE1 TRP A   3      -1.991   1.466  48.684  0.00  0.00    +0.166 HD
ATOM     58  CD1 TRP A   3      -3.019   1.629  50.555  0.00  0.00    +0.068 A 
ENDBRANCH  48  49
ENDBRANCH   1  48
TORSDOF 21
REMARK  Name = ../refined-set-2016/4qlk/4qlk_pocket.pdb
REMARK  284 active torsions:
REMARK  status: ('A' for Active; 'I' for Inactive)
REMARK    1  A    between atoms: _1  and  _3
REMARK    2  A    between atoms: _3  and  _4
REMARK    3  A    between atoms: _3  and  _6
REMARK    4  A    between atoms: _9  and  _11
REMARK    5  A    between atoms: _11  and  _12
REMARK    6  A    between atoms: _11  and  _14
REMARK    7  A    between atoms: _14  and  _15
REMARK    8  A    between atoms: _18  and  _20
REMARK    9  A    between atoms: _20  and  _21
REMARK   10  A    between atoms: _20  and  _23
REMARK   11  A    between atoms: _23  and  _24
REMARK   12  A    between atoms: _26  and  _28
REMARK   13  A    between atoms: _28  and  _29
REMARK   14  A    between atoms: _28  and  _31
REMARK   15  A    between atoms: _31  and  _32
REMARK   16  A    between atoms: _32  and  _33
REMARK   17  A    between atoms: _38  and  _40
REMARK   18  A    between atoms: _40  and  _41
REMARK   19  A    between atoms: _40  and  _43
REMARK   20  A    between atoms: _43  and  _44
REMARK   21  A    between atoms: _44  and  _45
REMARK   22  A    between atoms: _45  and  _46
REMARK   23  A    between atoms: _55  and  _57
REMARK   24  A    between atoms: _57  and  _58
REMARK   25  A    between atoms: _57  and  _60
REMARK   26  A    between atoms: _60  and  _61
REMARK   27  A    between atoms: _66  and  _68
REMARK   28  A    between atoms: _68  and  _69
REMARK   29  A    between atoms: _68  and  _71
REMARK   30  A    between atoms: _71  and  _72
REMARK   31  A    between atoms: _77  and  _78
REMARK   32  A    between atoms: _80  and  _82
REMARK   33  A    between atoms: _82  and  _83
REMARK   34  A    between atoms: _82  and  _85
REMARK   35  A    between atoms: _85  and  _86
REMARK   36  A    between atoms: _91  and  _93
REMARK   37  A    between atoms: _93  and  _94
REMARK   38  A    between atoms: _93  and  _96
REMARK   39  A    between atoms: _96  and  _97
REMARK   40  A    between atoms: _97  and  _98
REMARK   41  A    between atoms: _103  and  _105
REMARK   42  A    between atoms: _105  and  _106
REMARK   43  A    between atoms: _105  and  _108
REMARK   44  A    between atoms: _108  and  _109
REMARK   45  A    between atoms: _109  and  _110
REMARK   46  A    between atoms: _110  and  _111
REMARK   47  A    between atoms: _120  and  _122
REMARK   48  A    between atoms: _122  and  _123
REMARK   49  A    between atoms: _122  and  _125
REMARK   50  A    between atoms: _125  and  _126
REMARK   51  A    between atoms: _129  and  _131
REMARK   52  A    between atoms: _131  and  _132
REMARK   53  A    between atoms: _131  and  _134
REMARK   54  A    between atoms: _134  and  _135
REMARK   55  A    between atoms: _138  and  _140
REMARK   56  A    between atoms: _140  and  _141
REMARK   57  A    between atoms: _140  and  _143
REMARK   58  A    between atoms: _143  and  _144
REMARK   59  A    between atoms: _147  and  _149
REMARK   60  A    between atoms: _149  and  _150
REMARK   61  A    between atoms: _149  and  _152
REMARK   62  A    between atoms: _152  and  _153
REMARK   63  A    between atoms: _156  and  _158
REMARK   64  A    between atoms: _158  and  _159
REMARK   65  A    between atoms: _158  and  _161
REMARK   66  A    between atoms: _161  and  _162
REMARK   67  A    between atoms: _162  and  _163
REMARK   68  A    between atoms: _168  and  _170
REMARK   69  A    between atoms: _170  and  _171
REMARK   70  A    between atoms: _170  and  _173
REMARK   71  A    between atoms: _173  and  _174
REMARK   72  A    between atoms: _177  and  _179
REMARK   73  A    between atoms: _179  and  _180
REMARK   74  A    between atoms: _179  and  _182
REMARK   75  A    between atoms: _182  and  _183
REMARK   76  A    between atoms: _188  and  _190
REMARK   77  A    between atoms: _190  and  _191
REMARK   78  A    between atoms: _190  and  _193
REMARK   79  A    between atoms: _196  and  _198
REMARK   80  A    between atoms: _198  and  _199
REMARK   81  A    between atoms: _198  and  _201
REMARK   82  A    between atoms: _201  and  _202
REMARK   83  A    between atoms: _205  and  _207
REMARK   84  A    between atoms: _207  and  _208
REMARK   85  A    between atoms: _207  and  _210
REMARK   86  A    between atoms: _210  and  _211
REMARK   87  A    between atoms: _214  and  _216
REMARK   88  A    between atoms: _216  and  _217
REMARK   89  A    between atoms: _216  and  _219
REMARK   90  A    between atoms: _219  and  _220
REMARK   91  A    between atoms: _226  and  _228
REMARK   92  A    between atoms: _228  and  _229
REMARK   93  A    between atoms: _228  and  _231
REMARK   94  A    between atoms: _231  and  _232
REMARK   95  A    between atoms: _237  and  _239
REMARK   96  A    between atoms: _239  and  _240
REMARK   97  A    between atoms: _239  and  _242
REMARK   98  A    between atoms: _242  and  _243
REMARK   99  A    between atoms: _253  and  _255
REMARK  100  A    between atoms: _255  and  _256
REMARK  101  A    between atoms: _255  and  _258
REMARK  102  A    between atoms: _258  and  _259
REMARK  103  A    between atoms: _264  and  _265
REMARK  104  A    between atoms: _267  and  _269
REMARK  105  A    between atoms: _269  and  _270
REMARK  106  A    between atoms: _273  and  _275
REMARK  107  A    between atoms: _275  and  _276
REMARK  108  A    between atoms: _275  and  _278
REMARK  109  A    between atoms: _278  and  _279
REMARK  110  A    between atoms: _285  and  _287
REMARK  111  A    between atoms: _287  and  _288
REMARK  112  A    between atoms: _287  and  _290
REMARK  113  A    between atoms: _290  and  _291
REMARK  114  A    between atoms: _296  and  _298
REMARK  115  A    between atoms: _298  and  _299
REMARK  116  A    between atoms: _298  and  _301
REMARK  117  A    between atoms: _301  and  _302
REMARK  118  A    between atoms: _307  and  _309
REMARK  119  A    between atoms: _309  and  _310
REMARK  120  A    between atoms: _309  and  _312
REMARK  121  A    between atoms: _312  and  _313
REMARK  122  A    between atoms: _313  and  _314
REMARK  123  A    between atoms: _319  and  _321
REMARK  124  A    between atoms: _321  and  _322
REMARK  125  A    between atoms: _321  and  _324
REMARK  126  A    between atoms: _324  and  _325
REMARK  127  A    between atoms: _330  and  _331
REMARK  128  A    between atoms: _333  and  _335
REMARK  129  A    between atoms: _335  and  _336
REMARK  130  A    between atoms: _335  and  _338
REMARK  131  A    between atoms: _338  and  _339
REMARK  132  A    between atoms: _342  and  _344
REMARK  133  A    between atoms: _344  and  _345
REMARK  134  A    between atoms: _348  and  _350
REMARK  135  A    between atoms: _350  and  _351
REMARK  136  A    between atoms: _350  and  _353
REMARK  137  A    between atoms: _353  and  _354
REMARK  138  A    between atoms: _356  and  _358
REMARK  139  A    between atoms: _358  and  _359
REMARK  140  A    between atoms: _358  and  _361
REMARK  141  A    between atoms: _361  and  _362
REMARK  142  A    between atoms: _367  and  _368
REMARK  143  A    between atoms: _370  and  _372
REMARK  144  A    between atoms: _372  and  _373
REMARK  145  A    between atoms: _372  and  _375
REMARK  146  A    between atoms: _375  and  _376
REMARK  147  A    between atoms: _376  and  _377
REMARK  148  A    between atoms: _379  and  _381
REMARK  149  A    between atoms: _381  and  _382
REMARK  150  A    between atoms: _381  and  _384
REMARK  151  A    between atoms: _384  and  _385
REMARK  152  A    between atoms: _385  and  _386
REMARK  153  A    between atoms: _386  and  _387
REMARK  154  A    between atoms: _387  and  _388
REMARK  155  A    between atoms: _392  and  _394
REMARK  156  A    between atoms: _394  and  _395
REMARK  157  A    between atoms: _394  and  _397
REMARK  158  A    between atoms: _397  and  _398
REMARK  159  A    between atoms: _400  and  _402
REMARK  160  A    between atoms: _402  and  _403
REMARK  161  A    between atoms: _402  and  _405
REMARK  162  A    between atoms: _405  and  _406
REMARK  163  A    between atoms: _411  and  _412
REMARK  164  A    between atoms: _414  and  _416
REMARK  165  A    between atoms: _416  and  _417
REMARK  166  A    between atoms: _416  and  _419
REMARK  167  A    between atoms: _419  and  _420
REMARK  168  A    between atoms: _422  and  _424
REMARK  169  A    between atoms: _424  and  _425
REMARK  170  A    between atoms: _428  and  _430
REMARK  171  A    between atoms: _430  and  _431
REMARK  172  A    between atoms: _430  and  _433
REMARK  173  A    between atoms: _433  and  _434
REMARK  174  A    between atoms: _437  and  _439
REMARK  175  A    between atoms: _439  and  _440
REMARK  176  A    between atoms: _439  and  _442
REMARK  177  A    between atoms: _442  and  _443
REMARK  178  A    between atoms: _453  and  _455
REMARK  179  A    between atoms: _455  and  _456
REMARK  180  A    between atoms: _455  and  _458
REMARK  181  A    between atoms: _458  and  _459
REMARK  182  A    between atoms: _459  and  _460
REMARK  183  A    between atoms: _465  and  _467
REMARK  184  A    between atoms: _467  and  _468
REMARK  185  A    between atoms: _467  and  _470
REMARK  186  A    between atoms: _473  and  _475
REMARK  187  A    between atoms: _475  and  _476
REMARK  188  A    between atoms: _475  and  _478
REMARK  189  A    between atoms: _478  and  _479
REMARK  190  A    between atoms: _482  and  _484
REMARK  191  A    between atoms: _484  and  _485
REMARK  192  A    between atoms: _488  and  _490
REMARK  193  A    between atoms: _490  and  _491
REMARK  194  A    between atoms: _490  and  _493
REMARK  195  A    between atoms: _496  and  _498
REMARK  196  A    between atoms: _498  and  _499
REMARK  197  A    between atoms: _498  and  _501
REMARK  198  A    between atoms: _501  and  _502
REMARK  199  A    between atoms: _508  and  _510
REMARK  200  A    between atoms: _510  and  _511
REMARK  201  A    between atoms: _510  and  _513
REMARK  202  A    between atoms: _513  and  _514
REMARK  203  A    between atoms: _516  and  _518
REMARK  204  A    between atoms: _518  and  _519
REMARK  205  A    between atoms: _518  and  _521
REMARK  206  A    between atoms: _521  and  _522
REMARK  207  A    between atoms: _527  and  _529
REMARK  208  A    between atoms: _529  and  _530
REMARK  209  A    between atoms: _529  and  _532
REMARK  210  A    between atoms: _532  and  _533
REMARK  211  A    between atoms: _543  and  _545
REMARK  212  A    between atoms: _545  and  _546
REMARK  213  A    between atoms: _545  and  _548
REMARK  214  A    between atoms: _548  and  _549
REMARK  215  A    between atoms: _552  and  _554
REMARK  216  A    between atoms: _554  and  _555
REMARK  217  A    between atoms: _554  and  _557
REMARK  218  A    between atoms: _557  and  _558
REMARK  219  A    between atoms: _563  and  _564
REMARK  220  A    between atoms: _566  and  _568
REMARK  221  A    between atoms: _568  and  _569
REMARK  222  A    between atoms: _568  and  _571
REMARK  223  A    between atoms: _571  and  _572
REMARK  224  A    between atoms: _575  and  _577
REMARK  225  A    between atoms: _577  and  _578
REMARK  226  A    between atoms: _577  and  _580
REMARK  227  A    between atoms: _580  and  _581
REMARK  228  A    between atoms: _581  and  _582
REMARK  229  A    between atoms: _585  and  _587
REMARK  230  A    between atoms: _587  and  _588
REMARK  231  A    between atoms: _587  and  _590
REMARK  232  A    between atoms: _590  and  _591
REMARK  233  A    between atoms: _596  and  _598
REMARK  234  A    between atoms: _598  and  _599
REMARK  235  A    between atoms: _601  and  _603
REMARK  236  A    between atoms: _603  and  _604
REMARK  237  A    between atoms: _603  and  _606
REMARK  238  A    between atoms: _606  and  _607
REMARK  239  A    between atoms: _607  and  _608
REMARK  240  A    between atoms: _610  and  _612
REMARK  241  A    between atoms: _612  and  _613
REMARK  242  A    between atoms: _612  and  _615
REMARK  243  A    between atoms: _615  and  _616
REMARK  244  A    between atoms: _619  and  _621
REMARK  245  A    between atoms: _621  and  _622
REMARK  246  A    between atoms: _621  and  _624
REMARK  247  A    between atoms: _624  and  _625
REMARK  248  A    between atoms: _635  and  _637
REMARK  249  A    between atoms: _637  and  _638
REMARK  250  A    between atoms: _637  and  _640
REMARK  251  A    between atoms: _640  and  _641
REMARK  252  A    between atoms: _643  and  _645
REMARK  253  A    between atoms: _645  and  _646
REMARK  254  A    between atoms: _645  and  _648
REMARK  255  A    between atoms: _648  and  _649
REMARK  256  A    between atoms: _654  and  _656
REMARK  257  A    between atoms: _656  and  _657
REMARK  258  A    between atoms: _656  and  _659
REMARK  259  A    between atoms: _659  and  _660
REMARK  260  A    between atoms: _666  and  _668
REMARK  261  A    between atoms: _668  and  _669
REMARK  262  A    between atoms: _668  and  _671
REMARK  263  A    between atoms: _671  and  _672
REMARK  264  A    between atoms: _672  and  _673
REMARK  265  A    between atoms: _676  and  _678
REMARK  266  A    between atoms: _678  and  _679
REMARK  267  A    between atoms: _678  and  _681
REMARK  268  A    between atoms: _681  and  _682
REMARK  269  A    between atoms: _692  and  _694
REMARK  270  A    between atoms: _694  and  _695
REMARK  271  A    between atoms: _694  and  _697
REMARK  272  A    between atoms: _697  and  _698
REMARK  273  A    between atoms: _701  and  _703
REMARK  274  A    between atoms: _703  and  _704
REMARK  275  A    between atoms: _703  and  _706
REMARK  276  A    between atoms: _706  and  _707
REMARK  277  A    between atoms: _709  and  _711
REMARK  278  A    between atoms: _711  and  _712
REMARK  279  A    between atoms: _711  and  _714
REMARK  280  A    between atoms: _714  and  _715
REMARK  281  A    between atoms: _717  and  _719
REMARK  282  A    between atoms: _719  and  _720
REMARK  283  A    between atoms: _719  and  _722
REMARK  284  A    between atoms: _722  and  _723
REMARK                            x       y       z     vdW  Elec       q    Type
REMARK                         _______ _______ _______ _____ _____    ______ ____
ROOT
ATOM      1  CA  ASN A   3       4.988  -8.888  50.559  0.00  0.00    +0.158 C 
ENDROOT
BRANCH   1   4
ATOM      2  C   GLU A   2       3.620 -10.254  49.034  0.00  0.00    +0.241 C 
ATOM      3  O   GLU A   2       2.798 -10.594  49.912  0.00  0.00    -0.273 OA
ATOM      4  N   ASN A   3       4.707  -9.537  49.270  0.00  0.00    -0.297 N 
ATOM      5  H   ASN A   3       5.400  -9.427  48.502  0.00  0.00    +0.150 HD
BRANCH   2   6
ATOM      6  CA  GLU A   2       3.396 -10.621  47.566  0.00  0.00    +0.149 C 
BRANCH   6   8
ATOM      7  C   THR A   1       3.112 -12.795  46.428  0.00  0.00    +0.241 C 
ATOM      8  N   GLU A   2       2.965 -12.014  47.499  0.00  0.00    -0.297 N 
ATOM      9  H   GLU A   2       2.514 -12.424  48.341  0.00  0.00    +0.150 HD
ATOM     10  O   THR A   1       3.479 -12.393  45.339  0.00  0.00    -0.274 OA
BRANCH   7  11
ATOM     11  CA  THR A   1       2.746 -14.265  46.607  0.00  0.00    +0.172 C 
BRANCH  11  12
ATOM     12  N   THR A   1       2.571 -14.679  47.995  0.00  0.00    -0.236 NA
ATOM     13  H   THR A   1       1.639 -14.558  48.441  0.00  0.00    +0.142 HD
ENDBRANCH  11  12
BRANCH  11  14
ATOM     14  CB  THR A   1       1.505 -14.609  45.754  0.00  0.00    +0.135 C 
ATOM     15  CG2 THR A   1       1.521 -16.081  45.357  0.00  0.00    +0.034 C 
BRANCH  14  16
ATOM     16  OG1 THR A   1       0.320 -14.345  46.502  0.00  0.00    -0.383 OA
ATOM     17  HG1 THR A   1       0.294 -13.387  46.749  0.00  0.00    +0.210 HD
ENDBRANCH  14  16
ENDBRANCH  11  14
ENDBRANCH   7  11
ENDBRANCH   6   8
BRANCH   6  18
ATOM     18  CB  GLU A   2       2.340  -9.648  47.002  0.00  0.00    +0.041 C 
BRANCH  18  19
ATOM     19  CG  GLU A   2       2.229  -9.616  45.483  0.00  0.00    +0.116 C 
BRANCH  19  20
ATOM     20  CD  GLU A   2       1.191  -8.634  44.963  0.00  0.00    +0.365 C 
ATOM     21  OE2 GLU A   2       0.896  -7.607  45.653  0.00  0.00    -0.246 OA
ATOM     22  OE1 GLU A   2       0.653  -8.901  43.854  0.00  0.00    -0.246 OA
ENDBRANCH  19  20
ENDBRANCH  18  19
ENDBRANCH   6  18
ENDBRANCH   2   6
ENDBRANCH   1   4
BRANCH   1  23
ATOM     23  C   ASN A   3       6.050  -7.808  50.306  0.00  0.00    +0.241 C 
ATOM     24  N   GLY A   4       5.816  -6.610  50.816  0.00  0.00    -0.295 N 
ATOM     25  H   GLY A   4       4.976  -6.461  51.411  0.00  0.00    +0.150 HD
ATOM     26  O   ASN A   3       7.035  -8.045  49.607  0.00  0.00    -0.273 OA
BRANCH  24  27
ATOM     27  CA  GLY A   4       6.723  -5.492  50.555  0.00  0.00    +0.176 C 
BRANCH  27  28
ATOM     28  C   GLY A   4       6.185  -4.163  51.040  0.00  0.00    +0.243 C 
ATOM     29  O   GLY A   4       5.083  -4.082  51.586  0.00  0.00    -0.273 OA
ATOM     30  N   MET A   5       6.962  -3.111  50.819  0.00  0.00    -0.297 N 
ATOM     31  H   MET A   5       7.855  -3.236  50.301  0.00  0.00    +0.150 HD
BRANCH  30  32
ATOM     32  CA  MET A   5       6.587  -1.783  51.289  0.00  0.00    +0.149 C 
BRANCH  32  33
ATOM     33  C   MET A   5       7.132  -0.728  50.349  0.00  0.00    +0.241 C 
ATOM     34  N   ASP A   6       6.571   0.479  50.411  0.00  0.00    -0.298 N 
ATOM     35  H   ASP A   6       5.861   0.681  51.143  0.00  0.00    +0.150 HD
ATOM     36  O   MET A   5       8.045  -1.014  49.568  0.00  0.00    -0.273 OA
BRANCH  34  37
ATOM     37  CA  ASP A   6       6.949   1.528  49.451  0.00  0.00    +0.148 C 
BRANCH  37  38
ATOM     38  C   ASP A   6       7.596   2.770  50.046  0.00  0.00    +0.227 C 
ATOM     39  O   ASP A   6       7.308   3.167  51.176  0.00  0.00    -0.286 OA
ENDBRANCH  37  38
BRANCH  37  40
ATOM     40  CB  ASP A   6       5.784   1.921  48.527  0.00  0.00    +0.142 C 
BRANCH  40  41
ATOM     41  CG  ASP A   6       4.555   2.424  49.266  0.00  0.00    +0.367 C 
ATOM     42  OD2 ASP A   6       4.370   2.129  50.472  0.00  0.00    -0.246 OA
ATOM     43  OD1 ASP A   6       3.741   3.121  48.610  0.00  0.00    -0.246 OA
ENDBRANCH  40  41
ENDBRANCH  37  40
ENDBRANCH  34  37
ENDBRANCH  32  33
BRANCH  32  44
ATOM     44  CB  MET A   5       7.075  -1.552  52.726  0.00  0.00    +0.041 C 
BRANCH  44  45
ATOM     45  CG  MET A   5       8.581  -1.716  52.933  0.00  0.00    +0.060 C 
BRANCH  45  46
ATOM     46  SD  MET A   5       9.207  -0.617  54.236  0.00  0.00    -0.139 S 
ATOM     47  CE  MET A   5       9.299   0.939  53.361  0.00  0.00    +0.069 C 
ENDBRANCH  45  46
ENDBRANCH  44  45
ENDBRANCH  32  44
ENDBRANCH  30  32
ENDBRANCH  27  28
ENDBRANCH  24  27
ENDBRANCH   1  23
BRANCH   1  48
ATOM     48  CB  ASN A   3       5.450  -9.919  51.591  0.00  0.00    +0.114 C 
BRANCH  48  49
ATOM     49  CG  ASN A   3       5.749  -9.312  52.962  0.00  0.00    +0.222 C 
ATOM     50  OD1 ASN A   3       6.810  -9.559  53.529  0.00  0.00    -0.275 OA
ATOM     51  ND2 ASN A   3       4.813  -8.534  53.502  0.00  0.00    -0.329 N 
ATOM     52 HD21 ASN A   3       4.967  -8.109  54.439  0.00  0.00    +0.145 HD
ATOM     53 HD22 ASN A   3       3.928  -8.351  52.987  0.00  0.00    +0.145 HD
ENDBRANCH  48  49
ENDBRANCH   1  48
TORSDOF 24
REMARK  Name = ../refined-set-2016/4qlk/4qlk_pocket.pdb
REMARK  284 active torsions:
REMARK  status: ('A' for Active; 'I' for Inactive)
REMARK    1  A    between atoms: _1  and  _3
REMARK    2  A    between atoms: _3  and  _4
REMARK    3  A    between atoms: _3  and  _6
REMARK    4  A    between atoms: _9  and  _11
REMARK    5  A    between atoms: _11  and  _12
REMARK    6  A    between atoms: _11  and  _14
REMARK    7  A    between atoms: _14  and  _15
REMARK    8  A    between atoms: _18  and  _20
REMARK    9  A    between atoms: _20  and  _21
REMARK   10  A    between atoms: _20  and  _23
REMARK   11  A    between atoms: _23  and  _24
REMARK   12  A    between atoms: _26  and  _28
REMARK   13  A    between atoms: _28  and  _29
REMARK   14  A    between atoms: _28  and  _31
REMARK   15  A    between atoms: _31  and  _32
REMARK   16  A    between atoms: _32  and  _33
REMARK   17  A    between atoms: _38  and  _40
REMARK   18  A    between atoms: _40  and  _41
REMARK   19  A    between atoms: _40  and  _43
REMARK   20  A    between atoms: _43  and  _44
REMARK   21  A    between atoms: _44  and  _45
REMARK   22  A    between atoms: _45  and  _46
REMARK   23  A    between atoms: _55  and  _57
REMARK   24  A    between atoms: _57  and  _58
REMARK   25  A    between atoms: _57  and  _60
REMARK   26  A    between atoms: _60  and  _61
REMARK   27  A    between atoms: _66  and  _68
REMARK   28  A    between atoms: _68  and  _69
REMARK   29  A    between atoms: _68  and  _71
REMARK   30  A    between atoms: _71  and  _72
REMARK   31  A    between atoms: _77  and  _78
REMARK   32  A    between atoms: _80  and  _82
REMARK   33  A    between atoms: _82  and  _83
REMARK   34  A    between atoms: _82  and  _85
REMARK   35  A    between atoms: _85  and  _86
REMARK   36  A    between atoms: _91  and  _93
REMARK   37  A    between atoms: _93  and  _94
REMARK   38  A    between atoms: _93  and  _96
REMARK   39  A    between atoms: _96  and  _97
REMARK   40  A    between atoms: _97  and  _98
REMARK   41  A    between atoms: _103  and  _105
REMARK   42  A    between atoms: _105  and  _106
REMARK   43  A    between atoms: _105  and  _108
REMARK   44  A    between atoms: _108  and  _109
REMARK   45  A    between atoms: _109  and  _110
REMARK   46  A    between atoms: _110  and  _111
REMARK   47  A    between atoms: _120  and  _122
REMARK   48  A    between atoms: _122  and  _123
REMARK   49  A    between atoms: _122  and  _125
REMARK   50  A    between atoms: _125  and  _126
REMARK   51  A    between atoms: _129  and  _131
REMARK   52  A    between atoms: _131  and  _132
REMARK   53  A    between atoms: _131  and  _134
REMARK   54  A    between atoms: _134  and  _135
REMARK   55  A    between atoms: _138  and  _140
REMARK   56  A    between atoms: _140  and  _141
REMARK   57  A    between atoms: _140  and  _143
REMARK   58  A    between atoms: _143  and  _144
REMARK   59  A    between atoms: _147  and  _149
REMARK   60  A    between atoms: _149  and  _150
REMARK   61  A    between atoms: _149  and  _152
REMARK   62  A    between atoms: _152  and  _153
REMARK   63  A    between atoms: _156  and  _158
REMARK   64  A    between atoms: _158  and  _159
REMARK   65  A    between atoms: _158  and  _161
REMARK   66  A    between atoms: _161  and  _162
REMARK   67  A    between atoms: _162  and  _163
REMARK   68  A    between atoms: _168  and  _170
REMARK   69  A    between atoms: _170  and  _171
REMARK   70  A    between atoms: _170  and  _173
REMARK   71  A    between atoms: _173  and  _174
REMARK   72  A    between atoms: _177  and  _179
REMARK   73  A    between atoms: _179  and  _180
REMARK   74  A    between atoms: _179  and  _182
REMARK   75  A    between atoms: _182  and  _183
REMARK   76  A    between atoms: _188  and  _190
REMARK   77  A    between atoms: _190  and  _191
REMARK   78  A    between atoms: _190  and  _193
REMARK   79  A    between atoms: _196  and  _198
REMARK   80  A    between atoms: _198  and  _199
REMARK   81  A    between atoms: _198  and  _201
REMARK   82  A    between atoms: _201  and  _202
REMARK   83  A    between atoms: _205  and  _207
REMARK   84  A    between atoms: _207  and  _208
REMARK   85  A    between atoms: _207  and  _210
REMARK   86  A    between atoms: _210  and  _211
REMARK   87  A    between atoms: _214  and  _216
REMARK   88  A    between atoms: _216  and  _217
REMARK   89  A    between atoms: _216  and  _219
REMARK   90  A    between atoms: _219  and  _220
REMARK   91  A    between atoms: _226  and  _228
REMARK   92  A    between atoms: _228  and  _229
REMARK   93  A    between atoms: _228  and  _231
REMARK   94  A    between atoms: _231  and  _232
REMARK   95  A    between atoms: _237  and  _239
REMARK   96  A    between atoms: _239  and  _240
REMARK   97  A    between atoms: _239  and  _242
REMARK   98  A    between atoms: _242  and  _243
REMARK   99  A    between atoms: _253  and  _255
REMARK  100  A    between atoms: _255  and  _256
REMARK  101  A    between atoms: _255  and  _258
REMARK  102  A    between atoms: _258  and  _259
REMARK  103  A    between atoms: _264  and  _265
REMARK  104  A    between atoms: _267  and  _269
REMARK  105  A    between atoms: _269  and  _270
REMARK  106  A    between atoms: _273  and  _275
REMARK  107  A    between atoms: _275  and  _276
REMARK  108  A    between atoms: _275  and  _278
REMARK  109  A    between atoms: _278  and  _279
REMARK  110  A    between atoms: _285  and  _287
REMARK  111  A    between atoms: _287  and  _288
REMARK  112  A    between atoms: _287  and  _290
REMARK  113  A    between atoms: _290  and  _291
REMARK  114  A    between atoms: _296  and  _298
REMARK  115  A    between atoms: _298  and  _299
REMARK  116  A    between atoms: _298  and  _301
REMARK  117  A    between atoms: _301  and  _302
REMARK  118  A    between atoms: _307  and  _309
REMARK  119  A    between atoms: _309  and  _310
REMARK  120  A    between atoms: _309  and  _312
REMARK  121  A    between atoms: _312  and  _313
REMARK  122  A    between atoms: _313  and  _314
REMARK  123  A    between atoms: _319  and  _321
REMARK  124  A    between atoms: _321  and  _322
REMARK  125  A    between atoms: _321  and  _324
REMARK  126  A    between atoms: _324  and  _325
REMARK  127  A    between atoms: _330  and  _331
REMARK  128  A    between atoms: _333  and  _335
REMARK  129  A    between atoms: _335  and  _336
REMARK  130  A    between atoms: _335  and  _338
REMARK  131  A    between atoms: _338  and  _339
REMARK  132  A    between atoms: _342  and  _344
REMARK  133  A    between atoms: _344  and  _345
REMARK  134  A    between atoms: _348  and  _350
REMARK  135  A    between atoms: _350  and  _351
REMARK  136  A    between atoms: _350  and  _353
REMARK  137  A    between atoms: _353  and  _354
REMARK  138  A    between atoms: _356  and  _358
REMARK  139  A    between atoms: _358  and  _359
REMARK  140  A    between atoms: _358  and  _361
REMARK  141  A    between atoms: _361  and  _362
REMARK  142  A    between atoms: _367  and  _368
REMARK  143  A    between atoms: _370  and  _372
REMARK  144  A    between atoms: _372  and  _373
REMARK  145  A    between atoms: _372  and  _375
REMARK  146  A    between atoms: _375  and  _376
REMARK  147  A    between atoms: _376  and  _377
REMARK  148  A    between atoms: _379  and  _381
REMARK  149  A    between atoms: _381  and  _382
REMARK  150  A    between atoms: _381  and  _384
REMARK  151  A    between atoms: _384  and  _385
REMARK  152  A    between atoms: _385  and  _386
REMARK  153  A    between atoms: _386  and  _387
REMARK  154  A    between atoms: _387  and  _388
REMARK  155  A    between atoms: _392  and  _394
REMARK  156  A    between atoms: _394  and  _395
REMARK  157  A    between atoms: _394  and  _397
REMARK  158  A    between atoms: _397  and  _398
REMARK  159  A    between atoms: _400  and  _402
REMARK  160  A    between atoms: _402  and  _403
REMARK  161  A    between atoms: _402  and  _405
REMARK  162  A    between atoms: _405  and  _406
REMARK  163  A    between atoms: _411  and  _412
REMARK  164  A    between atoms: _414  and  _416
REMARK  165  A    between atoms: _416  and  _417
REMARK  166  A    between atoms: _416  and  _419
REMARK  167  A    between atoms: _419  and  _420
REMARK  168  A    between atoms: _422  and  _424
REMARK  169  A    between atoms: _424  and  _425
REMARK  170  A    between atoms: _428  and  _430
REMARK  171  A    between atoms: _430  and  _431
REMARK  172  A    between atoms: _430  and  _433
REMARK  173  A    between atoms: _433  and  _434
REMARK  174  A    between atoms: _437  and  _439
REMARK  175  A    between atoms: _439  and  _440
REMARK  176  A    between atoms: _439  and  _442
REMARK  177  A    between atoms: _442  and  _443
REMARK  178  A    between atoms: _453  and  _455
REMARK  179  A    between atoms: _455  and  _456
REMARK  180  A    between atoms: _455  and  _458
REMARK  181  A    between atoms: _458  and  _459
REMARK  182  A    between atoms: _459  and  _460
REMARK  183  A    between atoms: _465  and  _467
REMARK  184  A    between atoms: _467  and  _468
REMARK  185  A    between atoms: _467  and  _470
REMARK  186  A    between atoms: _473  and  _475
REMARK  187  A    between atoms: _475  and  _476
REMARK  188  A    between atoms: _475  and  _478
REMARK  189  A    between atoms: _478  and  _479
REMARK  190  A    between atoms: _482  and  _484
REMARK  191  A    between atoms: _484  and  _485
REMARK  192  A    between atoms: _488  and  _490
REMARK  193  A    between atoms: _490  and  _491
REMARK  194  A    between atoms: _490  and  _493
REMARK  195  A    between atoms: _496  and  _498
REMARK  196  A    between atoms: _498  and  _499
REMARK  197  A    between atoms: _498  and  _501
REMARK  198  A    between atoms: _501  and  _502
REMARK  199  A    between atoms: _508  and  _510
REMARK  200  A    between atoms: _510  and  _511
REMARK  201  A    between atoms: _510  and  _513
REMARK  202  A    between atoms: _513  and  _514
REMARK  203  A    between atoms: _516  and  _518
REMARK  204  A    between atoms: _518  and  _519
REMARK  205  A    between atoms: _518  and  _521
REMARK  206  A    between atoms: _521  and  _522
REMARK  207  A    between atoms: _527  and  _529
REMARK  208  A    between atoms: _529  and  _530
REMARK  209  A    between atoms: _529  and  _532
REMARK  210  A    between atoms: _532  and  _533
REMARK  211  A    between atoms: _543  and  _545
REMARK  212  A    between atoms: _545  and  _546
REMARK  213  A    between atoms: _545  and  _548
REMARK  214  A    between atoms: _548  and  _549
REMARK  215  A    between atoms: _552  and  _554
REMARK  216  A    between atoms: _554  and  _555
REMARK  217  A    between atoms: _554  and  _557
REMARK  218  A    between atoms: _557  and  _558
REMARK  219  A    between atoms: _563  and  _564
REMARK  220  A    between atoms: _566  and  _568
REMARK  221  A    between atoms: _568  and  _569
REMARK  222  A    between atoms: _568  and  _571
REMARK  223  A    between atoms: _571  and  _572
REMARK  224  A    between atoms: _575  and  _577
REMARK  225  A    between atoms: _577  and  _578
REMARK  226  A    between atoms: _577  and  _580
REMARK  227  A    between atoms: _580  and  _581
REMARK  228  A    between atoms: _581  and  _582
REMARK  229  A    between atoms: _585  and  _587
REMARK  230  A    between atoms: _587  and  _588
REMARK  231  A    between atoms: _587  and  _590
REMARK  232  A    between atoms: _590  and  _591
REMARK  233  A    between atoms: _596  and  _598
REMARK  234  A    between atoms: _598  and  _599
REMARK  235  A    between atoms: _601  and  _603
REMARK  236  A    between atoms: _603  and  _604
REMARK  237  A    between atoms: _603  and  _606
REMARK  238  A    between atoms: _606  and  _607
REMARK  239  A    between atoms: _607  and  _608
REMARK  240  A    between atoms: _610  and  _612
REMARK  241  A    between atoms: _612  and  _613
REMARK  242  A    between atoms: _612  and  _615
REMARK  243  A    between atoms: _615  and  _616
REMARK  244  A    between atoms: _619  and  _621
REMARK  245  A    between atoms: _621  and  _622
REMARK  246  A    between atoms: _621  and  _624
REMARK  247  A    between atoms: _624  and  _625
REMARK  248  A    between atoms: _635  and  _637
REMARK  249  A    between atoms: _637  and  _638
REMARK  250  A    between atoms: _637  and  _640
REMARK  251  A    between atoms: _640  and  _641
REMARK  252  A    between atoms: _643  and  _645
REMARK  253  A    between atoms: _645  and  _646
REMARK  254  A    between atoms: _645  and  _648
REMARK  255  A    between atoms: _648  and  _649
REMARK  256  A    between atoms: _654  and  _656
REMARK  257  A    between atoms: _656  and  _657
REMARK  258  A    between atoms: _656  and  _659
REMARK  259  A    between atoms: _659  and  _660
REMARK  260  A    between atoms: _666  and  _668
REMARK  261  A    between atoms: _668  and  _669
REMARK  262  A    between atoms: _668  and  _671
REMARK  263  A    between atoms: _671  and  _672
REMARK  264  A    between atoms: _672  and  _673
REMARK  265  A    between atoms: _676  and  _678
REMARK  266  A    between atoms: _678  and  _679
REMARK  267  A    between atoms: _678  and  _681
REMARK  268  A    between atoms: _681  and  _682
REMARK  269  A    between atoms: _692  and  _694
REMARK  270  A    between atoms: _694  and  _695
REMARK  271  A    between atoms: _694  and  _697
REMARK  272  A    between atoms: _697  and  _698
REMARK  273  A    between atoms: _701  and  _703
REMARK  274  A    between atoms: _703  and  _704
REMARK  275  A    between atoms: _703  and  _706
REMARK  276  A    between atoms: _706  and  _707
REMARK  277  A    between atoms: _709  and  _711
REMARK  278  A    between atoms: _711  and  _712
REMARK  279  A    between atoms: _711  and  _714
REMARK  280  A    between atoms: _714  and  _715
REMARK  281  A    between atoms: _717  and  _719
REMARK  282  A    between atoms: _719  and  _720
REMARK  283  A    between atoms: _719  and  _722
REMARK  284  A    between atoms: _722  and  _723
REMARK                            x       y       z     vdW  Elec       q    Type
REMARK                         _______ _______ _______ _____ _____    ______ ____
ROOT
ATOM      1  CA  TRP A   1       6.598  -7.238  45.848  0.00  0.00    +0.149 C 
ENDROOT
BRANCH   1   2
ATOM      2  C   TRP A   1       7.409  -5.975  46.140  0.00  0.00    +0.239 C 
ATOM      3  O   TRP A   1       7.364  -5.485  47.272  0.00  0.00    -0.274 OA
ATOM      4  N   SER A   2       8.168  -5.439  45.181  0.00  0.00    -0.296 N 
ATOM      5  H   SER A   2       8.722  -4.598  45.439  0.00  0.00    +0.150 HD
BRANCH   4   6
ATOM      6  CA  SER A   2       8.299  -5.914  43.807  0.00  0.00    +0.166 C 
BRANCH   6   7
ATOM      7  CB  SER A   2       9.771  -6.006  43.433  0.00  0.00    +0.229 C 
ATOM      8  OG  SER A   2      10.630  -5.443  44.111  0.00  0.00    -0.286 OA
ENDBRANCH   6   7
BRANCH   6   9
ATOM      9  C   SER A   2       7.594  -4.941  42.853  0.00  0.00    +0.165 C 
BRANCH   9  10
ATOM     10  O   SER A   2       7.784  -5.272  41.479  0.00  0.00    -0.380 OA
ATOM     11  H   SER A   2       7.424  -6.178  41.306  0.00  0.00    +0.211 HD
ENDBRANCH   9  10
ENDBRANCH   6   9
ENDBRANCH   4   6
ENDBRANCH   1   2
BRANCH   1  12
ATOM     12  N   TRP A   1       7.115  -8.318  46.697  0.00  0.00    -0.238 NA
ATOM     13  H   TRP A   1       6.702  -8.468  47.640  0.00  0.00    +0.142 HD
ENDBRANCH   1  12
BRANCH   1  14
ATOM     14  CB  TRP A   1       5.099  -6.951  46.059  0.00  0.00    +0.054 C 
BRANCH  14  15
ATOM     15  CG  TRP A   1       4.657  -5.872  45.102  0.00  0.00    -0.002 A 
ATOM     16  CD1 TRP A   1       4.723  -4.526  45.302  0.00  0.00    +0.068 A 
ATOM     17  NE1 TRP A   1       4.311  -3.860  44.187  0.00  0.00    -0.352 N 
ATOM     18  HE1 TRP A   1       4.261  -2.826  44.087  0.00  0.00    +0.166 HD
ATOM     19  CE2 TRP A   1       3.974  -4.766  43.221  0.00  0.00    +0.056 A 
ATOM     20  CZ2 TRP A   1       3.508  -4.565  41.916  0.00  0.00    +0.017 A 
ATOM     21  CH2 TRP A   1       3.253  -5.673  41.162  0.00  0.00    +0.001 A 
ATOM     22  CZ3 TRP A   1       3.443  -6.964  41.667  0.00  0.00    +0.000 A 
ATOM     23  CE3 TRP A   1       3.928  -7.169  42.961  0.00  0.00    +0.001 A 
ATOM     24  CD2 TRP A   1       4.189  -6.051  43.761  0.00  0.00    +0.013 A 
ENDBRANCH  14  15
ENDBRANCH   1  14
TORSDOF 8
REMARK  Name = ../refined-set-2016/4qlk/4qlk_pocket.pdb
REMARK  284 active torsions:
REMARK  status: ('A' for Active; 'I' for Inactive)
REMARK    1  A    between atoms: _1  and  _3
REMARK    2  A    between atoms: _3  and  _4
REMARK    3  A    between atoms: _3  and  _6
REMARK    4  A    between atoms: _9  and  _11
REMARK    5  A    between atoms: _11  and  _12
REMARK    6  A    between atoms: _11  and  _14
REMARK    7  A    between atoms: _14  and  _15
REMARK    8  A    between atoms: _18  and  _20
REMARK    9  A    between atoms: _20  and  _21
REMARK   10  A    between atoms: _20  and  _23
REMARK   11  A    between atoms: _23  and  _24
REMARK   12  A    between atoms: _26  and  _28
REMARK   13  A    between atoms: _28  and  _29
REMARK   14  A    between atoms: _28  and  _31
REMARK   15  A    between atoms: _31  and  _32
REMARK   16  A    between atoms: _32  and  _33
REMARK   17  A    between atoms: _38  and  _40
REMARK   18  A    between atoms: _40  and  _41
REMARK   19  A    between atoms: _40  and  _43
REMARK   20  A    between atoms: _43  and  _44
REMARK   21  A    between atoms: _44  and  _45
REMARK   22  A    between atoms: _45  and  _46
REMARK   23  A    between atoms: _55  and  _57
REMARK   24  A    between atoms: _57  and  _58
REMARK   25  A    between atoms: _57  and  _60
REMARK   26  A    between atoms: _60  and  _61
REMARK   27  A    between atoms: _66  and  _68
REMARK   28  A    between atoms: _68  and  _69
REMARK   29  A    between atoms: _68  and  _71
REMARK   30  A    between atoms: _71  and  _72
REMARK   31  A    between atoms: _77  and  _78
REMARK   32  A    between atoms: _80  and  _82
REMARK   33  A    between atoms: _82  and  _83
REMARK   34  A    between atoms: _82  and  _85
REMARK   35  A    between atoms: _85  and  _86
REMARK   36  A    between atoms: _91  and  _93
REMARK   37  A    between atoms: _93  and  _94
REMARK   38  A    between atoms: _93  and  _96
REMARK   39  A    between atoms: _96  and  _97
REMARK   40  A    between atoms: _97  and  _98
REMARK   41  A    between atoms: _103  and  _105
REMARK   42  A    between atoms: _105  and  _106
REMARK   43  A    between atoms: _105  and  _108
REMARK   44  A    between atoms: _108  and  _109
REMARK   45  A    between atoms: _109  and  _110
REMARK   46  A    between atoms: _110  and  _111
REMARK   47  A    between atoms: _120  and  _122
REMARK   48  A    between atoms: _122  and  _123
REMARK   49  A    between atoms: _122  and  _125
REMARK   50  A    between atoms: _125  and  _126
REMARK   51  A    between atoms: _129  and  _131
REMARK   52  A    between atoms: _131  and  _132
REMARK   53  A    between atoms: _131  and  _134
REMARK   54  A    between atoms: _134  and  _135
REMARK   55  A    between atoms: _138  and  _140
REMARK   56  A    between atoms: _140  and  _141
REMARK   57  A    between atoms: _140  and  _143
REMARK   58  A    between atoms: _143  and  _144
REMARK   59  A    between atoms: _147  and  _149
REMARK   60  A    between atoms: _149  and  _150
REMARK   61  A    between atoms: _149  and  _152
REMARK   62  A    between atoms: _152  and  _153
REMARK   63  A    between atoms: _156  and  _158
REMARK   64  A    between atoms: _158  and  _159
REMARK   65  A    between atoms: _158  and  _161
REMARK   66  A    between atoms: _161  and  _162
REMARK   67  A    between atoms: _162  and  _163
REMARK   68  A    between atoms: _168  and  _170
REMARK   69  A    between atoms: _170  and  _171
REMARK   70  A    between atoms: _170  and  _173
REMARK   71  A    between atoms: _173  and  _174
REMARK   72  A    between atoms: _177  and  _179
REMARK   73  A    between atoms: _179  and  _180
REMARK   74  A    between atoms: _179  and  _182
REMARK   75  A    between atoms: _182  and  _183
REMARK   76  A    between atoms: _188  and  _190
REMARK   77  A    between atoms: _190  and  _191
REMARK   78  A    between atoms: _190  and  _193
REMARK   79  A    between atoms: _196  and  _198
REMARK   80  A    between atoms: _198  and  _199
REMARK   81  A    between atoms: _198  and  _201
REMARK   82  A    between atoms: _201  and  _202
REMARK   83  A    between atoms: _205  and  _207
REMARK   84  A    between atoms: _207  and  _208
REMARK   85  A    between atoms: _207  and  _210
REMARK   86  A    between atoms: _210  and  _211
REMARK   87  A    between atoms: _214  and  _216
REMARK   88  A    between atoms: _216  and  _217
REMARK   89  A    between atoms: _216  and  _219
REMARK   90  A    between atoms: _219  and  _220
REMARK   91  A    between atoms: _226  and  _228
REMARK   92  A    between atoms: _228  and  _229
REMARK   93  A    between atoms: _228  and  _231
REMARK   94  A    between atoms: _231  and  _232
REMARK   95  A    between atoms: _237  and  _239
REMARK   96  A    between atoms: _239  and  _240
REMARK   97  A    between atoms: _239  and  _242
REMARK   98  A    between atoms: _242  and  _243
REMARK   99  A    between atoms: _253  and  _255
REMARK  100  A    between atoms: _255  and  _256
REMARK  101  A    between atoms: _255  and  _258
REMARK  102  A    between atoms: _258  and  _259
REMARK  103  A    between atoms: _264  and  _265
REMARK  104  A    between atoms: _267  and  _269
REMARK  105  A    between atoms: _269  and  _270
REMARK  106  A    between atoms: _273  and  _275
REMARK  107  A    between atoms: _275  and  _276
REMARK  108  A    between atoms: _275  and  _278
REMARK  109  A    between atoms: _278  and  _279
REMARK  110  A    between atoms: _285  and  _287
REMARK  111  A    between atoms: _287  and  _288
REMARK  112  A    between atoms: _287  and  _290
REMARK  113  A    between atoms: _290  and  _291
REMARK  114  A    between atoms: _296  and  _298
REMARK  115  A    between atoms: _298  and  _299
REMARK  116  A    between atoms: _298  and  _301
REMARK  117  A    between atoms: _301  and  _302
REMARK  118  A    between atoms: _307  and  _309
REMARK  119  A    between atoms: _309  and  _310
REMARK  120  A    between atoms: _309  and  _312
REMARK  121  A    between atoms: _312  and  _313
REMARK  122  A    between atoms: _313  and  _314
REMARK  123  A    between atoms: _319  and  _321
REMARK  124  A    between atoms: _321  and  _322
REMARK  125  A    between atoms: _321  and  _324
REMARK  126  A    between atoms: _324  and  _325
REMARK  127  A    between atoms: _330  and  _331
REMARK  128  A    between atoms: _333  and  _335
REMARK  129  A    between atoms: _335  and  _336
REMARK  130  A    between atoms: _335  and  _338
REMARK  131  A    between atoms: _338  and  _339
REMARK  132  A    between atoms: _342  and  _344
REMARK  133  A    between atoms: _344  and  _345
REMARK  134  A    between atoms: _348  and  _350
REMARK  135  A    between atoms: _350  and  _351
REMARK  136  A    between atoms: _350  and  _353
REMARK  137  A    between atoms: _353  and  _354
REMARK  138  A    between atoms: _356  and  _358
REMARK  139  A    between atoms: _358  and  _359
REMARK  140  A    between atoms: _358  and  _361
REMARK  141  A    between atoms: _361  and  _362
REMARK  142  A    between atoms: _367  and  _368
REMARK  143  A    between atoms: _370  and  _372
REMARK  144  A    between atoms: _372  and  _373
REMARK  145  A    between atoms: _372  and  _375
REMARK  146  A    between atoms: _375  and  _376
REMARK  147  A    between atoms: _376  and  _377
REMARK  148  A    between atoms: _379  and  _381
REMARK  149  A    between atoms: _381  and  _382
REMARK  150  A    between atoms: _381  and  _384
REMARK  151  A    between atoms: _384  and  _385
REMARK  152  A    between atoms: _385  and  _386
REMARK  153  A    between atoms: _386  and  _387
REMARK  154  A    between atoms: _387  and  _388
REMARK  155  A    between atoms: _392  and  _394
REMARK  156  A    between atoms: _394  and  _395
REMARK  157  A    between atoms: _394  and  _397
REMARK  158  A    between atoms: _397  and  _398
REMARK  159  A    between atoms: _400  and  _402
REMARK  160  A    between atoms: _402  and  _403
REMARK  161  A    between atoms: _402  and  _405
REMARK  162  A    between atoms: _405  and  _406
REMARK  163  A    between atoms: _411  and  _412
REMARK  164  A    between atoms: _414  and  _416
REMARK  165  A    between atoms: _416  and  _417
REMARK  166  A    between atoms: _416  and  _419
REMARK  167  A    between atoms: _419  and  _420
REMARK  168  A    between atoms: _422  and  _424
REMARK  169  A    between atoms: _424  and  _425
REMARK  170  A    between atoms: _428  and  _430
REMARK  171  A    between atoms: _430  and  _431
REMARK  172  A    between atoms: _430  and  _433
REMARK  173  A    between atoms: _433  and  _434
REMARK  174  A    between atoms: _437  and  _439
REMARK  175  A    between atoms: _439  and  _440
REMARK  176  A    between atoms: _439  and  _442
REMARK  177  A    between atoms: _442  and  _443
REMARK  178  A    between atoms: _453  and  _455
REMARK  179  A    between atoms: _455  and  _456
REMARK  180  A    between atoms: _455  and  _458
REMARK  181  A    between atoms: _458  and  _459
REMARK  182  A    between atoms: _459  and  _460
REMARK  183  A    between atoms: _465  and  _467
REMARK  184  A    between atoms: _467  and  _468
REMARK  185  A    between atoms: _467  and  _470
REMARK  186  A    between atoms: _473  and  _475
REMARK  187  A    between atoms: _475  and  _476
REMARK  188  A    between atoms: _475  and  _478
REMARK  189  A    between atoms: _478  and  _479
REMARK  190  A    between atoms: _482  and  _484
REMARK  191  A    between atoms: _484  and  _485
REMARK  192  A    between atoms: _488  and  _490
REMARK  193  A    between atoms: _490  and  _491
REMARK  194  A    between atoms: _490  and  _493
REMARK  195  A    between atoms: _496  and  _498
REMARK  196  A    between atoms: _498  and  _499
REMARK  197  A    between atoms: _498  and  _501
REMARK  198  A    between atoms: _501  and  _502
REMARK  199  A    between atoms: _508  and  _510
REMARK  200  A    between atoms: _510  and  _511
REMARK  201  A    between atoms: _510  and  _513
REMARK  202  A    between atoms: _513  and  _514
REMARK  203  A    between atoms: _516  and  _518
REMARK  204  A    between atoms: _518  and  _519
REMARK  205  A    between atoms: _518  and  _521
REMARK  206  A    between atoms: _521  and  _522
REMARK  207  A    between atoms: _527  and  _529
REMARK  208  A    between atoms: _529  and  _530
REMARK  209  A    between atoms: _529  and  _532
REMARK  210  A    between atoms: _532  and  _533
REMARK  211  A    between atoms: _543  and  _545
REMARK  212  A    between atoms: _545  and  _546
REMARK  213  A    between atoms: _545  and  _548
REMARK  214  A    between atoms: _548  and  _549
REMARK  215  A    between atoms: _552  and  _554
REMARK  216  A    between atoms: _554  and  _555
REMARK  217  A    between atoms: _554  and  _557
REMARK  218  A    between atoms: _557  and  _558
REMARK  219  A    between atoms: _563  and  _564
REMARK  220  A    between atoms: _566  and  _568
REMARK  221  A    between atoms: _568  and  _569
REMARK  222  A    between atoms: _568  and  _571
REMARK  223  A    between atoms: _571  and  _572
REMARK  224  A    between atoms: _575  and  _577
REMARK  225  A    between atoms: _577  and  _578
REMARK  226  A    between atoms: _577  and  _580
REMARK  227  A    between atoms: _580  and  _581
REMARK  228  A    between atoms: _581  and  _582
REMARK  229  A    between atoms: _585  and  _587
REMARK  230  A    between atoms: _587  and  _588
REMARK  231  A    between atoms: _587  and  _590
REMARK  232  A    between atoms: _590  and  _591
REMARK  233  A    between atoms: _596  and  _598
REMARK  234  A    between atoms: _598  and  _599
REMARK  235  A    between atoms: _601  and  _603
REMARK  236  A    between atoms: _603  and  _604
REMARK  237  A    between atoms: _603  and  _606
REMARK  238  A    between atoms: _606  and  _607
REMARK  239  A    between atoms: _607  and  _608
REMARK  240  A    between atoms: _610  and  _612
REMARK  241  A    between atoms: _612  and  _613
REMARK  242  A    between atoms: _612  and  _615
REMARK  243  A    between atoms: _615  and  _616
REMARK  244  A    between atoms: _619  and  _621
REMARK  245  A    between atoms: _621  and  _622
REMARK  246  A    between atoms: _621  and  _624
REMARK  247  A    between atoms: _624  and  _625
REMARK  248  A    between atoms: _635  and  _637
REMARK  249  A    between atoms: _637  and  _638
REMARK  250  A    between atoms: _637  and  _640
REMARK  251  A    between atoms: _640  and  _641
REMARK  252  A    between atoms: _643  and  _645
REMARK  253  A    between atoms: _645  and  _646
REMARK  254  A    between atoms: _645  and  _648
REMARK  255  A    between atoms: _648  and  _649
REMARK  256  A    between atoms: _654  and  _656
REMARK  257  A    between atoms: _656  and  _657
REMARK  258  A    between atoms: _656  and  _659
REMARK  259  A    between atoms: _659  and  _660
REMARK  260  A    between atoms: _666  and  _668
REMARK  261  A    between atoms: _668  and  _669
REMARK  262  A    between atoms: _668  and  _671
REMARK  263  A    between atoms: _671  and  _672
REMARK  264  A    between atoms: _672  and  _673
REMARK  265  A    between atoms: _676  and  _678
REMARK  266  A    between atoms: _678  and  _679
REMARK  267  A    between atoms: _678  and  _681
REMARK  268  A    between atoms: _681  and  _682
REMARK  269  A    between atoms: _692  and  _694
REMARK  270  A    between atoms: _694  and  _695
REMARK  271  A    between atoms: _694  and  _697
REMARK  272  A    between atoms: _697  and  _698
REMARK  273  A    between atoms: _701  and  _703
REMARK  274  A    between atoms: _703  and  _704
REMARK  275  A    between atoms: _703  and  _706
REMARK  276  A    between atoms: _706  and  _707
REMARK  277  A    between atoms: _709  and  _711
REMARK  278  A    between atoms: _711  and  _712
REMARK  279  A    between atoms: _711  and  _714
REMARK  280  A    between atoms: _714  and  _715
REMARK  281  A    between atoms: _717  and  _719
REMARK  282  A    between atoms: _719  and  _720
REMARK  283  A    between atoms: _719  and  _722
REMARK  284  A    between atoms: _722  and  _723
REMARK                            x       y       z     vdW  Elec       q    Type
REMARK                         _______ _______ _______ _____ _____    ______ ____
ROOT
ATOM      1  C   GLU A   3       0.069   2.139  41.138  0.00  0.00    +0.241 C 
ATOM      2  O   GLU A   3      -0.406   2.860  42.008  0.00  0.00    -0.273 OA
ATOM      3  N   TRP A   4      -0.631   1.713  40.089  0.00  0.00    -0.297 N 
ATOM      4  H   TRP A   4      -0.131   1.182  39.347  0.00  0.00    +0.150 HD
ENDROOT
BRANCH   3   5
ATOM      5  CA  TRP A   4      -2.071   1.951  39.921  0.00  0.00    +0.153 C 
BRANCH   5   6
ATOM      6  C   TRP A   4      -2.424   3.438  40.142  0.00  0.00    +0.241 C 
ATOM      7  N   LEU A   5      -3.315   3.764  41.081  0.00  0.00    -0.297 N 
ATOM      8  H   LEU A   5      -3.739   3.018  41.668  0.00  0.00    +0.150 HD
ATOM      9  O   TRP A   4      -1.838   4.289  39.480  0.00  0.00    -0.273 OA
BRANCH   7  10
ATOM     10  CA  LEU A   5      -3.706   5.172  41.296  0.00  0.00    +0.149 C 
BRANCH  10  11
ATOM     11  C   LEU A   5      -2.545   6.087  41.699  0.00  0.00    +0.241 C 
ATOM     12  N   SER A   6      -1.512   5.520  42.313  0.00  0.00    -0.296 N 
ATOM     13  H   SER A   6      -1.533   4.497  42.498  0.00  0.00    +0.150 HD
ATOM     14  O   LEU A   5      -2.597   7.285  41.460  0.00  0.00    -0.273 OA
BRANCH  12  15
ATOM     15  CA  SER A   6      -0.340   6.299  42.738  0.00  0.00    +0.166 C 
BRANCH  15  16
ATOM     16  C   SER A   6       0.654   6.548  41.610  0.00  0.00    +0.229 C 
ATOM     17  O   SER A   6       1.635   7.278  41.786  0.00  0.00    -0.286 OA
ENDBRANCH  15  16
BRANCH  15  18
ATOM     18  CB  SER A   6       0.370   5.602  43.894  0.00  0.00    +0.165 C 
BRANCH  18  19
ATOM     19  OG  SER A   6      -0.499   5.467  44.991  0.00  0.00    -0.380 OA
ATOM     20  H   SER A   6      -0.025   5.014  45.732  0.00  0.00    +0.211 HD
ENDBRANCH  18  19
ENDBRANCH  15  18
ENDBRANCH  12  15
ENDBRANCH  10  11
BRANCH  10  21
ATOM     21  CB  LEU A   5      -4.825   5.302  42.340  0.00  0.00    +0.029 C 
BRANCH  21  22
ATOM     22  CG  LEU A   5      -6.135   4.563  42.082  0.00  0.00    +0.002 C 
ATOM     23  CD2 LEU A   5      -7.144   4.822  43.191  0.00  0.00    +0.000 C 
ATOM     24  CD1 LEU A   5      -6.718   4.947  40.744  0.00  0.00    +0.000 C 
ENDBRANCH  21  22
ENDBRANCH  10  21
ENDBRANCH   7  10
ENDBRANCH   5   6
BRANCH   5  25
ATOM     25  CB  TRP A   4      -2.881   0.961  40.784  0.00  0.00    +0.057 C 
BRANCH  25  26
ATOM     26  CG  TRP A   4      -2.478  -0.478  40.550  0.00  0.00    -0.002 A 
ATOM     27  CD1 TRP A   4      -1.933  -1.347  41.468  0.00  0.00    +0.068 A 
ATOM     28  NE1 TRP A   4      -1.689  -2.555  40.882  0.00  0.00    -0.352 N 
ATOM     29  HE1 TRP A   4      -1.288  -3.386  41.362  0.00  0.00    +0.166 HD
ATOM     30  CE2 TRP A   4      -2.054  -2.503  39.562  0.00  0.00    +0.056 A 
ATOM     31  CZ2 TRP A   4      -1.978  -3.491  38.558  0.00  0.00    +0.017 A 
ATOM     32  CH2 TRP A   4      -2.428  -3.162  37.311  0.00  0.00    +0.001 A 
ATOM     33  CZ3 TRP A   4      -2.952  -1.877  37.039  0.00  0.00    +0.000 A 
ATOM     34  CE3 TRP A   4      -3.005  -0.900  38.025  0.00  0.00    +0.001 A 
ATOM     35  CD2 TRP A   4      -2.548  -1.208  39.311  0.00  0.00    +0.013 A 
ENDBRANCH  25  26
ENDBRANCH   5  25
ENDBRANCH   3   5
BRANCH   1  36
ATOM     36  CA  GLU A   3       1.520   1.632  41.199  0.00  0.00    +0.149 C 
BRANCH  36  38
ATOM     37  C   PHE A   2       2.503   1.274  38.977  0.00  0.00    +0.241 C 
ATOM     38  N   GLU A   3       2.314   2.064  40.032  0.00  0.00    -0.297 N 
ATOM     39  H   GLU A   3       2.738   3.013  40.034  0.00  0.00    +0.150 HD
ATOM     40  O   PHE A   2       1.973   0.174  38.853  0.00  0.00    -0.273 OA
BRANCH  37  41
ATOM     41  CA  PHE A   2       3.451   1.782  37.904  0.00  0.00    +0.153 C 
BRANCH  41  44
ATOM     42  C   ASN A   1       5.627   1.260  38.889  0.00  0.00    +0.239 C 
ATOM     43  O   ASN A   1       5.558   2.195  39.688  0.00  0.00    -0.274 OA
ATOM     44  N   PHE A   2       4.704   1.027  37.963  0.00  0.00    -0.297 N 
ATOM     45  H   PHE A   2       4.877   0.284  37.256  0.00  0.00    +0.150 HD
BRANCH  42  46
ATOM     46  CA  ASN A   1       6.854   0.337  38.876  0.00  0.00    +0.154 C 
BRANCH  46  47
ATOM     47  N   ASN A   1       7.732   0.491  40.031  0.00  0.00    -0.238 NA
ATOM     48  H   ASN A   1       7.340   0.792  40.946  0.00  0.00    +0.142 HD
ENDBRANCH  46  47
BRANCH  46  49
ATOM     49  CB  ASN A   1       6.492  -1.146  38.698  0.00  0.00    +0.111 C 
BRANCH  49  50
ATOM     50  CG  ASN A   1       5.739  -1.720  39.876  0.00  0.00    +0.221 C 
ATOM     51  ND2 ASN A   1       6.297  -2.765  40.491  0.00  0.00    -0.329 N 
ATOM     52 HD21 ASN A   1       5.815  -3.212  41.297  0.00  0.00    +0.145 HD
ATOM     53 HD22 ASN A   1       7.214  -3.132  40.164  0.00  0.00    +0.145 HD
ATOM     54  OD1 ASN A   1       4.658  -1.247  40.221  0.00  0.00    -0.275 OA
ENDBRANCH  49  50
ENDBRANCH  46  49
ENDBRANCH  42  46
ENDBRANCH  41  44
BRANCH  41  55
ATOM     55  CB  PHE A   2       2.816   1.663  36.522  0.00  0.00    +0.055 C 
BRANCH  55  56
ATOM     56  CG  PHE A   2       1.490   2.352  36.400  0.00  0.00    -0.020 A 
ATOM     57  CD2 PHE A   2       0.312   1.629  36.486  0.00  0.00    -0.004 A 
ATOM     58  CE2 PHE A   2      -0.921   2.267  36.397  0.00  0.00    -0.000 A 
ATOM     59  CZ  PHE A   2      -0.978   3.633  36.207  0.00  0.00    -0.000 A 
ATOM     60  CE1 PHE A   2       0.191   4.364  36.122  0.00  0.00    -0.000 A 
ATOM     61  CD1 PHE A   2       1.417   3.725  36.218  0.00  0.00    -0.004 A 
ENDBRANCH  55  56
ENDBRANCH  41  55
ENDBRANCH  37  41
ENDBRANCH  36  38
BRANCH  36  62
ATOM     62  CB  GLU A   3       2.248   1.991  42.515  0.00  0.00    +0.041 C 
BRANCH  62  63
ATOM     63  CG  GLU A   3       1.515   1.639  43.810  0.00  0.00    +0.116 C 
BRANCH  63  64
ATOM     64  CD  GLU A   3       1.168   0.171  43.944  0.00  0.00    +0.365 C 
ATOM     65  OE2 GLU A   3       0.157  -0.139  44.626  0.00  0.00    -0.246 OA
ATOM     66  OE1 GLU A   3       1.910  -0.671  43.397  0.00  0.00    -0.246 OA
ENDBRANCH  63  64
ENDBRANCH  62  63
ENDBRANCH  36  62
ENDBRANCH   1  36
TORSDOF 25
REMARK  Name = ../refined-set-2016/4qlk/4qlk_pocket.pdb
REMARK  284 active torsions:
REMARK  status: ('A' for Active; 'I' for Inactive)
REMARK    1  A    between atoms: _1  and  _3
REMARK    2  A    between atoms: _3  and  _4
REMARK    3  A    between atoms: _3  and  _6
REMARK    4  A    between atoms: _9  and  _11
REMARK    5  A    between atoms: _11  and  _12
REMARK    6  A    between atoms: _11  and  _14
REMARK    7  A    between atoms: _14  and  _15
REMARK    8  A    between atoms: _18  and  _20
REMARK    9  A    between atoms: _20  and  _21
REMARK   10  A    between atoms: _20  and  _23
REMARK   11  A    between atoms: _23  and  _24
REMARK   12  A    between atoms: _26  and  _28
REMARK   13  A    between atoms: _28  and  _29
REMARK   14  A    between atoms: _28  and  _31
REMARK   15  A    between atoms: _31  and  _32
REMARK   16  A    between atoms: _32  and  _33
REMARK   17  A    between atoms: _38  and  _40
REMARK   18  A    between atoms: _40  and  _41
REMARK   19  A    between atoms: _40  and  _43
REMARK   20  A    between atoms: _43  and  _44
REMARK   21  A    between atoms: _44  and  _45
REMARK   22  A    between atoms: _45  and  _46
REMARK   23  A    between atoms: _55  and  _57
REMARK   24  A    between atoms: _57  and  _58
REMARK   25  A    between atoms: _57  and  _60
REMARK   26  A    between atoms: _60  and  _61
REMARK   27  A    between atoms: _66  and  _68
REMARK   28  A    between atoms: _68  and  _69
REMARK   29  A    between atoms: _68  and  _71
REMARK   30  A    between atoms: _71  and  _72
REMARK   31  A    between atoms: _77  and  _78
REMARK   32  A    between atoms: _80  and  _82
REMARK   33  A    between atoms: _82  and  _83
REMARK   34  A    between atoms: _82  and  _85
REMARK   35  A    between atoms: _85  and  _86
REMARK   36  A    between atoms: _91  and  _93
REMARK   37  A    between atoms: _93  and  _94
REMARK   38  A    between atoms: _93  and  _96
REMARK   39  A    between atoms: _96  and  _97
REMARK   40  A    between atoms: _97  and  _98
REMARK   41  A    between atoms: _103  and  _105
REMARK   42  A    between atoms: _105  and  _106
REMARK   43  A    between atoms: _105  and  _108
REMARK   44  A    between atoms: _108  and  _109
REMARK   45  A    between atoms: _109  and  _110
REMARK   46  A    between atoms: _110  and  _111
REMARK   47  A    between atoms: _120  and  _122
REMARK   48  A    between atoms: _122  and  _123
REMARK   49  A    between atoms: _122  and  _125
REMARK   50  A    between atoms: _125  and  _126
REMARK   51  A    between atoms: _129  and  _131
REMARK   52  A    between atoms: _131  and  _132
REMARK   53  A    between atoms: _131  and  _134
REMARK   54  A    between atoms: _134  and  _135
REMARK   55  A    between atoms: _138  and  _140
REMARK   56  A    between atoms: _140  and  _141
REMARK   57  A    between atoms: _140  and  _143
REMARK   58  A    between atoms: _143  and  _144
REMARK   59  A    between atoms: _147  and  _149
REMARK   60  A    between atoms: _149  and  _150
REMARK   61  A    between atoms: _149  and  _152
REMARK   62  A    between atoms: _152  and  _153
REMARK   63  A    between atoms: _156  and  _158
REMARK   64  A    between atoms: _158  and  _159
REMARK   65  A    between atoms: _158  and  _161
REMARK   66  A    between atoms: _161  and  _162
REMARK   67  A    between atoms: _162  and  _163
REMARK   68  A    between atoms: _168  and  _170
REMARK   69  A    between atoms: _170  and  _171
REMARK   70  A    between atoms: _170  and  _173
REMARK   71  A    between atoms: _173  and  _174
REMARK   72  A    between atoms: _177  and  _179
REMARK   73  A    between atoms: _179  and  _180
REMARK   74  A    between atoms: _179  and  _182
REMARK   75  A    between atoms: _182  and  _183
REMARK   76  A    between atoms: _188  and  _190
REMARK   77  A    between atoms: _190  and  _191
REMARK   78  A    between atoms: _190  and  _193
REMARK   79  A    between atoms: _196  and  _198
REMARK   80  A    between atoms: _198  and  _199
REMARK   81  A    between atoms: _198  and  _201
REMARK   82  A    between atoms: _201  and  _202
REMARK   83  A    between atoms: _205  and  _207
REMARK   84  A    between atoms: _207  and  _208
REMARK   85  A    between atoms: _207  and  _210
REMARK   86  A    between atoms: _210  and  _211
REMARK   87  A    between atoms: _214  and  _216
REMARK   88  A    between atoms: _216  and  _217
REMARK   89  A    between atoms: _216  and  _219
REMARK   90  A    between atoms: _219  and  _220
REMARK   91  A    between atoms: _226  and  _228
REMARK   92  A    between atoms: _228  and  _229
REMARK   93  A    between atoms: _228  and  _231
REMARK   94  A    between atoms: _231  and  _232
REMARK   95  A    between atoms: _237  and  _239
REMARK   96  A    between atoms: _239  and  _240
REMARK   97  A    between atoms: _239  and  _242
REMARK   98  A    between atoms: _242  and  _243
REMARK   99  A    between atoms: _253  and  _255
REMARK  100  A    between atoms: _255  and  _256
REMARK  101  A    between atoms: _255  and  _258
REMARK  102  A    between atoms: _258  and  _259
REMARK  103  A    between atoms: _264  and  _265
REMARK  104  A    between atoms: _267  and  _269
REMARK  105  A    between atoms: _269  and  _270
REMARK  106  A    between atoms: _273  and  _275
REMARK  107  A    between atoms: _275  and  _276
REMARK  108  A    between atoms: _275  and  _278
REMARK  109  A    between atoms: _278  and  _279
REMARK  110  A    between atoms: _285  and  _287
REMARK  111  A    between atoms: _287  and  _288
REMARK  112  A    between atoms: _287  and  _290
REMARK  113  A    between atoms: _290  and  _291
REMARK  114  A    between atoms: _296  and  _298
REMARK  115  A    between atoms: _298  and  _299
REMARK  116  A    between atoms: _298  and  _301
REMARK  117  A    between atoms: _301  and  _302
REMARK  118  A    between atoms: _307  and  _309
REMARK  119  A    between atoms: _309  and  _310
REMARK  120  A    between atoms: _309  and  _312
REMARK  121  A    between atoms: _312  and  _313
REMARK  122  A    between atoms: _313  and  _314
REMARK  123  A    between atoms: _319  and  _321
REMARK  124  A    between atoms: _321  and  _322
REMARK  125  A    between atoms: _321  and  _324
REMARK  126  A    between atoms: _324  and  _325
REMARK  127  A    between atoms: _330  and  _331
REMARK  128  A    between atoms: _333  and  _335
REMARK  129  A    between atoms: _335  and  _336
REMARK  130  A    between atoms: _335  and  _338
REMARK  131  A    between atoms: _338  and  _339
REMARK  132  A    between atoms: _342  and  _344
REMARK  133  A    between atoms: _344  and  _345
REMARK  134  A    between atoms: _348  and  _350
REMARK  135  A    between atoms: _350  and  _351
REMARK  136  A    between atoms: _350  and  _353
REMARK  137  A    between atoms: _353  and  _354
REMARK  138  A    between atoms: _356  and  _358
REMARK  139  A    between atoms: _358  and  _359
REMARK  140  A    between atoms: _358  and  _361
REMARK  141  A    between atoms: _361  and  _362
REMARK  142  A    between atoms: _367  and  _368
REMARK  143  A    between atoms: _370  and  _372
REMARK  144  A    between atoms: _372  and  _373
REMARK  145  A    between atoms: _372  and  _375
REMARK  146  A    between atoms: _375  and  _376
REMARK  147  A    between atoms: _376  and  _377
REMARK  148  A    between atoms: _379  and  _381
REMARK  149  A    between atoms: _381  and  _382
REMARK  150  A    between atoms: _381  and  _384
REMARK  151  A    between atoms: _384  and  _385
REMARK  152  A    between atoms: _385  and  _386
REMARK  153  A    between atoms: _386  and  _387
REMARK  154  A    between atoms: _387  and  _388
REMARK  155  A    between atoms: _392  and  _394
REMARK  156  A    between atoms: _394  and  _395
REMARK  157  A    between atoms: _394  and  _397
REMARK  158  A    between atoms: _397  and  _398
REMARK  159  A    between atoms: _400  and  _402
REMARK  160  A    between atoms: _402  and  _403
REMARK  161  A    between atoms: _402  and  _405
REMARK  162  A    between atoms: _405  and  _406
REMARK  163  A    between atoms: _411  and  _412
REMARK  164  A    between atoms: _414  and  _416
REMARK  165  A    between atoms: _416  and  _417
REMARK  166  A    between atoms: _416  and  _419
REMARK  167  A    between atoms: _419  and  _420
REMARK  168  A    between atoms: _422  and  _424
REMARK  169  A    between atoms: _424  and  _425
REMARK  170  A    between atoms: _428  and  _430
REMARK  171  A    between atoms: _430  and  _431
REMARK  172  A    between atoms: _430  and  _433
REMARK  173  A    between atoms: _433  and  _434
REMARK  174  A    between atoms: _437  and  _439
REMARK  175  A    between atoms: _439  and  _440
REMARK  176  A    between atoms: _439  and  _442
REMARK  177  A    between atoms: _442  and  _443
REMARK  178  A    between atoms: _453  and  _455
REMARK  179  A    between atoms: _455  and  _456
REMARK  180  A    between atoms: _455  and  _458
REMARK  181  A    between atoms: _458  and  _459
REMARK  182  A    between atoms: _459  and  _460
REMARK  183  A    between atoms: _465  and  _467
REMARK  184  A    between atoms: _467  and  _468
REMARK  185  A    between atoms: _467  and  _470
REMARK  186  A    between atoms: _473  and  _475
REMARK  187  A    between atoms: _475  and  _476
REMARK  188  A    between atoms: _475  and  _478
REMARK  189  A    between atoms: _478  and  _479
REMARK  190  A    between atoms: _482  and  _484
REMARK  191  A    between atoms: _484  and  _485
REMARK  192  A    between atoms: _488  and  _490
REMARK  193  A    between atoms: _490  and  _491
REMARK  194  A    between atoms: _490  and  _493
REMARK  195  A    between atoms: _496  and  _498
REMARK  196  A    between atoms: _498  and  _499
REMARK  197  A    between atoms: _498  and  _501
REMARK  198  A    between atoms: _501  and  _502
REMARK  199  A    between atoms: _508  and  _510
REMARK  200  A    between atoms: _510  and  _511
REMARK  201  A    between atoms: _510  and  _513
REMARK  202  A    between atoms: _513  and  _514
REMARK  203  A    between atoms: _516  and  _518
REMARK  204  A    between atoms: _518  and  _519
REMARK  205  A    between atoms: _518  and  _521
REMARK  206  A    between atoms: _521  and  _522
REMARK  207  A    between atoms: _527  and  _529
REMARK  208  A    between atoms: _529  and  _530
REMARK  209  A    between atoms: _529  and  _532
REMARK  210  A    between atoms: _532  and  _533
REMARK  211  A    between atoms: _543  and  _545
REMARK  212  A    between atoms: _545  and  _546
REMARK  213  A    between atoms: _545  and  _548
REMARK  214  A    between atoms: _548  and  _549
REMARK  215  A    between atoms: _552  and  _554
REMARK  216  A    between atoms: _554  and  _555
REMARK  217  A    between atoms: _554  and  _557
REMARK  218  A    between atoms: _557  and  _558
REMARK  219  A    between atoms: _563  and  _564
REMARK  220  A    between atoms: _566  and  _568
REMARK  221  A    between atoms: _568  and  _569
REMARK  222  A    between atoms: _568  and  _571
REMARK  223  A    between atoms: _571  and  _572
REMARK  224  A    between atoms: _575  and  _577
REMARK  225  A    between atoms: _577  and  _578
REMARK  226  A    between atoms: _577  and  _580
REMARK  227  A    between atoms: _580  and  _581
REMARK  228  A    between atoms: _581  and  _582
REMARK  229  A    between atoms: _585  and  _587
REMARK  230  A    between atoms: _587  and  _588
REMARK  231  A    between atoms: _587  and  _590
REMARK  232  A    between atoms: _590  and  _591
REMARK  233  A    between atoms: _596  and  _598
REMARK  234  A    between atoms: _598  and  _599
REMARK  235  A    between atoms: _601  and  _603
REMARK  236  A    between atoms: _603  and  _604
REMARK  237  A    between atoms: _603  and  _606
REMARK  238  A    between atoms: _606  and  _607
REMARK  239  A    between atoms: _607  and  _608
REMARK  240  A    between atoms: _610  and  _612
REMARK  241  A    between atoms: _612  and  _613
REMARK  242  A    between atoms: _612  and  _615
REMARK  243  A    between atoms: _615  and  _616
REMARK  244  A    between atoms: _619  and  _621
REMARK  245  A    between atoms: _621  and  _622
REMARK  246  A    between atoms: _621  and  _624
REMARK  247  A    between atoms: _624  and  _625
REMARK  248  A    between atoms: _635  and  _637
REMARK  249  A    between atoms: _637  and  _638
REMARK  250  A    between atoms: _637  and  _640
REMARK  251  A    between atoms: _640  and  _641
REMARK  252  A    between atoms: _643  and  _645
REMARK  253  A    between atoms: _645  and  _646
REMARK  254  A    between atoms: _645  and  _648
REMARK  255  A    between atoms: _648  and  _649
REMARK  256  A    between atoms: _654  and  _656
REMARK  257  A    between atoms: _656  and  _657
REMARK  258  A    between atoms: _656  and  _659
REMARK  259  A    between atoms: _659  and  _660
REMARK  260  A    between atoms: _666  and  _668
REMARK  261  A    between atoms: _668  and  _669
REMARK  262  A    between atoms: _668  and  _671
REMARK  263  A    between atoms: _671  and  _672
REMARK  264  A    between atoms: _672  and  _673
REMARK  265  A    between atoms: _676  and  _678
REMARK  266  A    between atoms: _678  and  _679
REMARK  267  A    between atoms: _678  and  _681
REMARK  268  A    between atoms: _681  and  _682
REMARK  269  A    between atoms: _692  and  _694
REMARK  270  A    between atoms: _694  and  _695
REMARK  271  A    between atoms: _694  and  _697
REMARK  272  A    between atoms: _697  and  _698
REMARK  273  A    between atoms: _701  and  _703
REMARK  274  A    between atoms: _703  and  _704
REMARK  275  A    between atoms: _703  and  _706
REMARK  276  A    between atoms: _706  and  _707
REMARK  277  A    between atoms: _709  and  _711
REMARK  278  A    between atoms: _711  and  _712
REMARK  279  A    between atoms: _711  and  _714
REMARK  280  A    between atoms: _714  and  _715
REMARK  281  A    between atoms: _717  and  _719
REMARK  282  A    between atoms: _719  and  _720
REMARK  283  A    between atoms: _719  and  _722
REMARK  284  A    between atoms: _722  and  _723
REMARK                            x       y       z     vdW  Elec       q    Type
REMARK                         _______ _______ _______ _____ _____    ______ ____
ROOT
ATOM      1  CA  SER A   1       5.023   4.943  45.068  0.00  0.00    +0.163 C 
ENDROOT
BRANCH   1   2
ATOM      2  N   SER A   1       4.820   5.988  44.061  0.00  0.00    -0.237 NA
ATOM      3  H   SER A   1       4.500   5.714  43.110  0.00  0.00    +0.142 HD
ENDBRANCH   1   2
BRANCH   1   4
ATOM      4  CB  SER A   1       6.071   3.961  44.560  0.00  0.00    +0.227 C 
ATOM      5  OG  SER A   1       5.935   3.430  43.458  0.00  0.00    -0.287 OA
ENDBRANCH   1   4
BRANCH   1   6
ATOM      6  C   SER A   1       3.697   4.232  45.348  0.00  0.00    +0.162 C 
BRANCH   6   7
ATOM      7  O   SER A   1       3.910   2.963  45.930  0.00  0.00    -0.380 OA
ATOM      8  H   SER A   1       4.397   3.071  46.785  0.00  0.00    +0.211 HD
ENDBRANCH   6   7
ENDBRANCH   1   6
TORSDOF 4
REMARK  Name = ../refined-set-2016/4qlk/4qlk_pocket.pdb
REMARK  284 active torsions:
REMARK  status: ('A' for Active; 'I' for Inactive)
REMARK    1  A    between atoms: _1  and  _3
REMARK    2  A    between atoms: _3  and  _4
REMARK    3  A    between atoms: _3  and  _6
REMARK    4  A    between atoms: _9  and  _11
REMARK    5  A    between atoms: _11  and  _12
REMARK    6  A    between atoms: _11  and  _14
REMARK    7  A    between atoms: _14  and  _15
REMARK    8  A    between atoms: _18  and  _20
REMARK    9  A    between atoms: _20  and  _21
REMARK   10  A    between atoms: _20  and  _23
REMARK   11  A    between atoms: _23  and  _24
REMARK   12  A    between atoms: _26  and  _28
REMARK   13  A    between atoms: _28  and  _29
REMARK   14  A    between atoms: _28  and  _31
REMARK   15  A    between atoms: _31  and  _32
REMARK   16  A    between atoms: _32  and  _33
REMARK   17  A    between atoms: _38  and  _40
REMARK   18  A    between atoms: _40  and  _41
REMARK   19  A    between atoms: _40  and  _43
REMARK   20  A    between atoms: _43  and  _44
REMARK   21  A    between atoms: _44  and  _45
REMARK   22  A    between atoms: _45  and  _46
REMARK   23  A    between atoms: _55  and  _57
REMARK   24  A    between atoms: _57  and  _58
REMARK   25  A    between atoms: _57  and  _60
REMARK   26  A    between atoms: _60  and  _61
REMARK   27  A    between atoms: _66  and  _68
REMARK   28  A    between atoms: _68  and  _69
REMARK   29  A    between atoms: _68  and  _71
REMARK   30  A    between atoms: _71  and  _72
REMARK   31  A    between atoms: _77  and  _78
REMARK   32  A    between atoms: _80  and  _82
REMARK   33  A    between atoms: _82  and  _83
REMARK   34  A    between atoms: _82  and  _85
REMARK   35  A    between atoms: _85  and  _86
REMARK   36  A    between atoms: _91  and  _93
REMARK   37  A    between atoms: _93  and  _94
REMARK   38  A    between atoms: _93  and  _96
REMARK   39  A    between atoms: _96  and  _97
REMARK   40  A    between atoms: _97  and  _98
REMARK   41  A    between atoms: _103  and  _105
REMARK   42  A    between atoms: _105  and  _106
REMARK   43  A    between atoms: _105  and  _108
REMARK   44  A    between atoms: _108  and  _109
REMARK   45  A    between atoms: _109  and  _110
REMARK   46  A    between atoms: _110  and  _111
REMARK   47  A    between atoms: _120  and  _122
REMARK   48  A    between atoms: _122  and  _123
REMARK   49  A    between atoms: _122  and  _125
REMARK   50  A    between atoms: _125  and  _126
REMARK   51  A    between atoms: _129  and  _131
REMARK   52  A    between atoms: _131  and  _132
REMARK   53  A    between atoms: _131  and  _134
REMARK   54  A    between atoms: _134  and  _135
REMARK   55  A    between atoms: _138  and  _140
REMARK   56  A    between atoms: _140  and  _141
REMARK   57  A    between atoms: _140  and  _143
REMARK   58  A    between atoms: _143  and  _144
REMARK   59  A    between atoms: _147  and  _149
REMARK   60  A    between atoms: _149  and  _150
REMARK   61  A    between atoms: _149  and  _152
REMARK   62  A    between atoms: _152  and  _153
REMARK   63  A    between atoms: _156  and  _158
REMARK   64  A    between atoms: _158  and  _159
REMARK   65  A    between atoms: _158  and  _161
REMARK   66  A    between atoms: _161  and  _162
REMARK   67  A    between atoms: _162  and  _163
REMARK   68  A    between atoms: _168  and  _170
REMARK   69  A    between atoms: _170  and  _171
REMARK   70  A    between atoms: _170  and  _173
REMARK   71  A    between atoms: _173  and  _174
REMARK   72  A    between atoms: _177  and  _179
REMARK   73  A    between atoms: _179  and  _180
REMARK   74  A    between atoms: _179  and  _182
REMARK   75  A    between atoms: _182  and  _183
REMARK   76  A    between atoms: _188  and  _190
REMARK   77  A    between atoms: _190  and  _191
REMARK   78  A    between atoms: _190  and  _193
REMARK   79  A    between atoms: _196  and  _198
REMARK   80  A    between atoms: _198  and  _199
REMARK   81  A    between atoms: _198  and  _201
REMARK   82  A    between atoms: _201  and  _202
REMARK   83  A    between atoms: _205  and  _207
REMARK   84  A    between atoms: _207  and  _208
REMARK   85  A    between atoms: _207  and  _210
REMARK   86  A    between atoms: _210  and  _211
REMARK   87  A    between atoms: _214  and  _216
REMARK   88  A    between atoms: _216  and  _217
REMARK   89  A    between atoms: _216  and  _219
REMARK   90  A    between atoms: _219  and  _220
REMARK   91  A    between atoms: _226  and  _228
REMARK   92  A    between atoms: _228  and  _229
REMARK   93  A    between atoms: _228  and  _231
REMARK   94  A    between atoms: _231  and  _232
REMARK   95  A    between atoms: _237  and  _239
REMARK   96  A    between atoms: _239  and  _240
REMARK   97  A    between atoms: _239  and  _242
REMARK   98  A    between atoms: _242  and  _243
REMARK   99  A    between atoms: _253  and  _255
REMARK  100  A    between atoms: _255  and  _256
REMARK  101  A    between atoms: _255  and  _258
REMARK  102  A    between atoms: _258  and  _259
REMARK  103  A    between atoms: _264  and  _265
REMARK  104  A    between atoms: _267  and  _269
REMARK  105  A    between atoms: _269  and  _270
REMARK  106  A    between atoms: _273  and  _275
REMARK  107  A    between atoms: _275  and  _276
REMARK  108  A    between atoms: _275  and  _278
REMARK  109  A    between atoms: _278  and  _279
REMARK  110  A    between atoms: _285  and  _287
REMARK  111  A    between atoms: _287  and  _288
REMARK  112  A    between atoms: _287  and  _290
REMARK  113  A    between atoms: _290  and  _291
REMARK  114  A    between atoms: _296  and  _298
REMARK  115  A    between atoms: _298  and  _299
REMARK  116  A    between atoms: _298  and  _301
REMARK  117  A    between atoms: _301  and  _302
REMARK  118  A    between atoms: _307  and  _309
REMARK  119  A    between atoms: _309  and  _310
REMARK  120  A    between atoms: _309  and  _312
REMARK  121  A    between atoms: _312  and  _313
REMARK  122  A    between atoms: _313  and  _314
REMARK  123  A    between atoms: _319  and  _321
REMARK  124  A    between atoms: _321  and  _322
REMARK  125  A    between atoms: _321  and  _324
REMARK  126  A    between atoms: _324  and  _325
REMARK  127  A    between atoms: _330  and  _331
REMARK  128  A    between atoms: _333  and  _335
REMARK  129  A    between atoms: _335  and  _336
REMARK  130  A    between atoms: _335  and  _338
REMARK  131  A    between atoms: _338  and  _339
REMARK  132  A    between atoms: _342  and  _344
REMARK  133  A    between atoms: _344  and  _345
REMARK  134  A    between atoms: _348  and  _350
REMARK  135  A    between atoms: _350  and  _351
REMARK  136  A    between atoms: _350  and  _353
REMARK  137  A    between atoms: _353  and  _354
REMARK  138  A    between atoms: _356  and  _358
REMARK  139  A    between atoms: _358  and  _359
REMARK  140  A    between atoms: _358  and  _361
REMARK  141  A    between atoms: _361  and  _362
REMARK  142  A    between atoms: _367  and  _368
REMARK  143  A    between atoms: _370  and  _372
REMARK  144  A    between atoms: _372  and  _373
REMARK  145  A    between atoms: _372  and  _375
REMARK  146  A    between atoms: _375  and  _376
REMARK  147  A    between atoms: _376  and  _377
REMARK  148  A    between atoms: _379  and  _381
REMARK  149  A    between atoms: _381  and  _382
REMARK  150  A    between atoms: _381  and  _384
REMARK  151  A    between atoms: _384  and  _385
REMARK  152  A    between atoms: _385  and  _386
REMARK  153  A    between atoms: _386  and  _387
REMARK  154  A    between atoms: _387  and  _388
REMARK  155  A    between atoms: _392  and  _394
REMARK  156  A    between atoms: _394  and  _395
REMARK  157  A    between atoms: _394  and  _397
REMARK  158  A    between atoms: _397  and  _398
REMARK  159  A    between atoms: _400  and  _402
REMARK  160  A    between atoms: _402  and  _403
REMARK  161  A    between atoms: _402  and  _405
REMARK  162  A    between atoms: _405  and  _406
REMARK  163  A    between atoms: _411  and  _412
REMARK  164  A    between atoms: _414  and  _416
REMARK  165  A    between atoms: _416  and  _417
REMARK  166  A    between atoms: _416  and  _419
REMARK  167  A    between atoms: _419  and  _420
REMARK  168  A    between atoms: _422  and  _424
REMARK  169  A    between atoms: _424  and  _425
REMARK  170  A    between atoms: _428  and  _430
REMARK  171  A    between atoms: _430  and  _431
REMARK  172  A    between atoms: _430  and  _433
REMARK  173  A    between atoms: _433  and  _434
REMARK  174  A    between atoms: _437  and  _439
REMARK  175  A    between atoms: _439  and  _440
REMARK  176  A    between atoms: _439  and  _442
REMARK  177  A    between atoms: _442  and  _443
REMARK  178  A    between atoms: _453  and  _455
REMARK  179  A    between atoms: _455  and  _456
REMARK  180  A    between atoms: _455  and  _458
REMARK  181  A    between atoms: _458  and  _459
REMARK  182  A    between atoms: _459  and  _460
REMARK  183  A    between atoms: _465  and  _467
REMARK  184  A    between atoms: _467  and  _468
REMARK  185  A    between atoms: _467  and  _470
REMARK  186  A    between atoms: _473  and  _475
REMARK  187  A    between atoms: _475  and  _476
REMARK  188  A    between atoms: _475  and  _478
REMARK  189  A    between atoms: _478  and  _479
REMARK  190  A    between atoms: _482  and  _484
REMARK  191  A    between atoms: _484  and  _485
REMARK  192  A    between atoms: _488  and  _490
REMARK  193  A    between atoms: _490  and  _491
REMARK  194  A    between atoms: _490  and  _493
REMARK  195  A    between atoms: _496  and  _498
REMARK  196  A    between atoms: _498  and  _499
REMARK  197  A    between atoms: _498  and  _501
REMARK  198  A    between atoms: _501  and  _502
REMARK  199  A    between atoms: _508  and  _510
REMARK  200  A    between atoms: _510  and  _511
REMARK  201  A    between atoms: _510  and  _513
REMARK  202  A    between atoms: _513  and  _514
REMARK  203  A    between atoms: _516  and  _518
REMARK  204  A    between atoms: _518  and  _519
REMARK  205  A    between atoms: _518  and  _521
REMARK  206  A    between atoms: _521  and  _522
REMARK  207  A    between atoms: _527  and  _529
REMARK  208  A    between atoms: _529  and  _530
REMARK  209  A    between atoms: _529  and  _532
REMARK  210  A    between atoms: _532  and  _533
REMARK  211  A    between atoms: _543  and  _545
REMARK  212  A    between atoms: _545  and  _546
REMARK  213  A    between atoms: _545  and  _548
REMARK  214  A    between atoms: _548  and  _549
REMARK  215  A    between atoms: _552  and  _554
REMARK  216  A    between atoms: _554  and  _555
REMARK  217  A    between atoms: _554  and  _557
REMARK  218  A    between atoms: _557  and  _558
REMARK  219  A    between atoms: _563  and  _564
REMARK  220  A    between atoms: _566  and  _568
REMARK  221  A    between atoms: _568  and  _569
REMARK  222  A    between atoms: _568  and  _571
REMARK  223  A    between atoms: _571  and  _572
REMARK  224  A    between atoms: _575  and  _577
REMARK  225  A    between atoms: _577  and  _578
REMARK  226  A    between atoms: _577  and  _580
REMARK  227  A    between atoms: _580  and  _581
REMARK  228  A    between atoms: _581  and  _582
REMARK  229  A    between atoms: _585  and  _587
REMARK  230  A    between atoms: _587  and  _588
REMARK  231  A    between atoms: _587  and  _590
REMARK  232  A    between atoms: _590  and  _591
REMARK  233  A    between atoms: _596  and  _598
REMARK  234  A    between atoms: _598  and  _599
REMARK  235  A    between atoms: _601  and  _603
REMARK  236  A    between atoms: _603  and  _604
REMARK  237  A    between atoms: _603  and  _606
REMARK  238  A    between atoms: _606  and  _607
REMARK  239  A    between atoms: _607  and  _608
REMARK  240  A    between atoms: _610  and  _612
REMARK  241  A    between atoms: _612  and  _613
REMARK  242  A    between atoms: _612  and  _615
REMARK  243  A    between atoms: _615  and  _616
REMARK  244  A    between atoms: _619  and  _621
REMARK  245  A    between atoms: _621  and  _622
REMARK  246  A    between atoms: _621  and  _624
REMARK  247  A    between atoms: _624  and  _625
REMARK  248  A    between atoms: _635  and  _637
REMARK  249  A    between atoms: _637  and  _638
REMARK  250  A    between atoms: _637  and  _640
REMARK  251  A    between atoms: _640  and  _641
REMARK  252  A    between atoms: _643  and  _645
REMARK  253  A    between atoms: _645  and  _646
REMARK  254  A    between atoms: _645  and  _648
REMARK  255  A    between atoms: _648  and  _649
REMARK  256  A    between atoms: _654  and  _656
REMARK  257  A    between atoms: _656  and  _657
REMARK  258  A    between atoms: _656  and  _659
REMARK  259  A    between atoms: _659  and  _660
REMARK  260  A    between atoms: _666  and  _668
REMARK  261  A    between atoms: _668  and  _669
REMARK  262  A    between atoms: _668  and  _671
REMARK  263  A    between atoms: _671  and  _672
REMARK  264  A    between atoms: _672  and  _673
REMARK  265  A    between atoms: _676  and  _678
REMARK  266  A    between atoms: _678  and  _679
REMARK  267  A    between atoms: _678  and  _681
REMARK  268  A    between atoms: _681  and  _682
REMARK  269  A    between atoms: _692  and  _694
REMARK  270  A    between atoms: _694  and  _695
REMARK  271  A    between atoms: _694  and  _697
REMARK  272  A    between atoms: _697  and  _698
REMARK  273  A    between atoms: _701  and  _703
REMARK  274  A    between atoms: _703  and  _704
REMARK  275  A    between atoms: _703  and  _706
REMARK  276  A    between atoms: _706  and  _707
REMARK  277  A    between atoms: _709  and  _711
REMARK  278  A    between atoms: _711  and  _712
REMARK  279  A    between atoms: _711  and  _714
REMARK  280  A    between atoms: _714  and  _715
REMARK  281  A    between atoms: _717  and  _719
REMARK  282  A    between atoms: _719  and  _720
REMARK  283  A    between atoms: _719  and  _722
REMARK  284  A    between atoms: _722  and  _723
REMARK                            x       y       z     vdW  Elec       q    Type
REMARK                         _______ _______ _______ _____ _____    ______ ____
ROOT
ATOM      1  CB  PHE A   1       6.592  -1.553  45.648  0.00  0.00    +0.051 C 
ENDROOT
BRANCH   1   2
ATOM      2  CG  PHE A   1       5.412  -1.257  46.536  0.00  0.00    -0.020 A 
ATOM      3  CD2 PHE A   1       5.268  -1.900  47.764  0.00  0.00    -0.004 A 
ATOM      4  CE2 PHE A   1       4.174  -1.656  48.577  0.00  0.00    -0.000 A 
ATOM      5  CZ  PHE A   1       3.195  -0.760  48.167  0.00  0.00    -0.000 A 
ATOM      6  CE1 PHE A   1       3.317  -0.111  46.944  0.00  0.00    -0.000 A 
ATOM      7  CD1 PHE A   1       4.422  -0.378  46.127  0.00  0.00    -0.004 A 
ENDBRANCH   1   2
BRANCH   1   8
ATOM      8  CA  PHE A   1       7.870  -0.772  46.007  0.00  0.00    +0.137 C 
BRANCH   8   9
ATOM      9  N   PHE A   1       7.864   0.530  45.322  0.00  0.00    -0.239 NA
ATOM     10  H   PHE A   1       7.444   0.580  44.372  0.00  0.00    +0.142 HD
ENDBRANCH   8   9
BRANCH   8  11
ATOM     11  C   PHE A   1       9.071  -1.699  45.719  0.00  0.00    +0.224 C 
ATOM     12  O   PHE A   1       9.190  -2.769  46.321  0.00  0.00    -0.287 OA
ENDBRANCH   8  11
ENDBRANCH   1   8
TORSDOF 4
REMARK  Name = ../refined-set-2016/4qlk/4qlk_pocket.pdb
REMARK  284 active torsions:
REMARK  status: ('A' for Active; 'I' for Inactive)
REMARK    1  A    between atoms: _1  and  _3
REMARK    2  A    between atoms: _3  and  _4
REMARK    3  A    between atoms: _3  and  _6
REMARK    4  A    between atoms: _9  and  _11
REMARK    5  A    between atoms: _11  and  _12
REMARK    6  A    between atoms: _11  and  _14
REMARK    7  A    between atoms: _14  and  _15
REMARK    8  A    between atoms: _18  and  _20
REMARK    9  A    between atoms: _20  and  _21
REMARK   10  A    between atoms: _20  and  _23
REMARK   11  A    between atoms: _23  and  _24
REMARK   12  A    between atoms: _26  and  _28
REMARK   13  A    between atoms: _28  and  _29
REMARK   14  A    between atoms: _28  and  _31
REMARK   15  A    between atoms: _31  and  _32
REMARK   16  A    between atoms: _32  and  _33
REMARK   17  A    between atoms: _38  and  _40
REMARK   18  A    between atoms: _40  and  _41
REMARK   19  A    between atoms: _40  and  _43
REMARK   20  A    between atoms: _43  and  _44
REMARK   21  A    between atoms: _44  and  _45
REMARK   22  A    between atoms: _45  and  _46
REMARK   23  A    between atoms: _55  and  _57
REMARK   24  A    between atoms: _57  and  _58
REMARK   25  A    between atoms: _57  and  _60
REMARK   26  A    between atoms: _60  and  _61
REMARK   27  A    between atoms: _66  and  _68
REMARK   28  A    between atoms: _68  and  _69
REMARK   29  A    between atoms: _68  and  _71
REMARK   30  A    between atoms: _71  and  _72
REMARK   31  A    between atoms: _77  and  _78
REMARK   32  A    between atoms: _80  and  _82
REMARK   33  A    between atoms: _82  and  _83
REMARK   34  A    between atoms: _82  and  _85
REMARK   35  A    between atoms: _85  and  _86
REMARK   36  A    between atoms: _91  and  _93
REMARK   37  A    between atoms: _93  and  _94
REMARK   38  A    between atoms: _93  and  _96
REMARK   39  A    between atoms: _96  and  _97
REMARK   40  A    between atoms: _97  and  _98
REMARK   41  A    between atoms: _103  and  _105
REMARK   42  A    between atoms: _105  and  _106
REMARK   43  A    between atoms: _105  and  _108
REMARK   44  A    between atoms: _108  and  _109
REMARK   45  A    between atoms: _109  and  _110
REMARK   46  A    between atoms: _110  and  _111
REMARK   47  A    between atoms: _120  and  _122
REMARK   48  A    between atoms: _122  and  _123
REMARK   49  A    between atoms: _122  and  _125
REMARK   50  A    between atoms: _125  and  _126
REMARK   51  A    between atoms: _129  and  _131
REMARK   52  A    between atoms: _131  and  _132
REMARK   53  A    between atoms: _131  and  _134
REMARK   54  A    between atoms: _134  and  _135
REMARK   55  A    between atoms: _138  and  _140
REMARK   56  A    between atoms: _140  and  _141
REMARK   57  A    between atoms: _140  and  _143
REMARK   58  A    between atoms: _143  and  _144
REMARK   59  A    between atoms: _147  and  _149
REMARK   60  A    between atoms: _149  and  _150
REMARK   61  A    between atoms: _149  and  _152
REMARK   62  A    between atoms: _152  and  _153
REMARK   63  A    between atoms: _156  and  _158
REMARK   64  A    between atoms: _158  and  _159
REMARK   65  A    between atoms: _158  and  _161
REMARK   66  A    between atoms: _161  and  _162
REMARK   67  A    between atoms: _162  and  _163
REMARK   68  A    between atoms: _168  and  _170
REMARK   69  A    between atoms: _170  and  _171
REMARK   70  A    between atoms: _170  and  _173
REMARK   71  A    between atoms: _173  and  _174
REMARK   72  A    between atoms: _177  and  _179
REMARK   73  A    between atoms: _179  and  _180
REMARK   74  A    between atoms: _179  and  _182
REMARK   75  A    between atoms: _182  and  _183
REMARK   76  A    between atoms: _188  and  _190
REMARK   77  A    between atoms: _190  and  _191
REMARK   78  A    between atoms: _190  and  _193
REMARK   79  A    between atoms: _196  and  _198
REMARK   80  A    between atoms: _198  and  _199
REMARK   81  A    between atoms: _198  and  _201
REMARK   82  A    between atoms: _201  and  _202
REMARK   83  A    between atoms: _205  and  _207
REMARK   84  A    between atoms: _207  and  _208
REMARK   85  A    between atoms: _207  and  _210
REMARK   86  A    between atoms: _210  and  _211
REMARK   87  A    between atoms: _214  and  _216
REMARK   88  A    between atoms: _216  and  _217
REMARK   89  A    between atoms: _216  and  _219
REMARK   90  A    between atoms: _219  and  _220
REMARK   91  A    between atoms: _226  and  _228
REMARK   92  A    between atoms: _228  and  _229
REMARK   93  A    between atoms: _228  and  _231
REMARK   94  A    between atoms: _231  and  _232
REMARK   95  A    between atoms: _237  and  _239
REMARK   96  A    between atoms: _239  and  _240
REMARK   97  A    between atoms: _239  and  _242
REMARK   98  A    between atoms: _242  and  _243
REMARK   99  A    between atoms: _253  and  _255
REMARK  100  A    between atoms: _255  and  _256
REMARK  101  A    between atoms: _255  and  _258
REMARK  102  A    between atoms: _258  and  _259
REMARK  103  A    between atoms: _264  and  _265
REMARK  104  A    between atoms: _267  and  _269
REMARK  105  A    between atoms: _269  and  _270
REMARK  106  A    between atoms: _273  and  _275
REMARK  107  A    between atoms: _275  and  _276
REMARK  108  A    between atoms: _275  and  _278
REMARK  109  A    between atoms: _278  and  _279
REMARK  110  A    between atoms: _285  and  _287
REMARK  111  A    between atoms: _287  and  _288
REMARK  112  A    between atoms: _287  and  _290
REMARK  113  A    between atoms: _290  and  _291
REMARK  114  A    between atoms: _296  and  _298
REMARK  115  A    between atoms: _298  and  _299
REMARK  116  A    between atoms: _298  and  _301
REMARK  117  A    between atoms: _301  and  _302
REMARK  118  A    between atoms: _307  and  _309
REMARK  119  A    between atoms: _309  and  _310
REMARK  120  A    between atoms: _309  and  _312
REMARK  121  A    between atoms: _312  and  _313
REMARK  122  A    between atoms: _313  and  _314
REMARK  123  A    between atoms: _319  and  _321
REMARK  124  A    between atoms: _321  and  _322
REMARK  125  A    between atoms: _321  and  _324
REMARK  126  A    between atoms: _324  and  _325
REMARK  127  A    between atoms: _330  and  _331
REMARK  128  A    between atoms: _333  and  _335
REMARK  129  A    between atoms: _335  and  _336
REMARK  130  A    between atoms: _335  and  _338
REMARK  131  A    between atoms: _338  and  _339
REMARK  132  A    between atoms: _342  and  _344
REMARK  133  A    between atoms: _344  and  _345
REMARK  134  A    between atoms: _348  and  _350
REMARK  135  A    between atoms: _350  and  _351
REMARK  136  A    between atoms: _350  and  _353
REMARK  137  A    between atoms: _353  and  _354
REMARK  138  A    between atoms: _356  and  _358
REMARK  139  A    between atoms: _358  and  _359
REMARK  140  A    between atoms: _358  and  _361
REMARK  141  A    between atoms: _361  and  _362
REMARK  142  A    between atoms: _367  and  _368
REMARK  143  A    between atoms: _370  and  _372
REMARK  144  A    between atoms: _372  and  _373
REMARK  145  A    between atoms: _372  and  _375
REMARK  146  A    between atoms: _375  and  _376
REMARK  147  A    between atoms: _376  and  _377
REMARK  148  A    between atoms: _379  and  _381
REMARK  149  A    between atoms: _381  and  _382
REMARK  150  A    between atoms: _381  and  _384
REMARK  151  A    between atoms: _384  and  _385
REMARK  152  A    between atoms: _385  and  _386
REMARK  153  A    between atoms: _386  and  _387
REMARK  154  A    between atoms: _387  and  _388
REMARK  155  A    between atoms: _392  and  _394
REMARK  156  A    between atoms: _394  and  _395
REMARK  157  A    between atoms: _394  and  _397
REMARK  158  A    between atoms: _397  and  _398
REMARK  159  A    between atoms: _400  and  _402
REMARK  160  A    between atoms: _402  and  _403
REMARK  161  A    between atoms: _402  and  _405
REMARK  162  A    between atoms: _405  and  _406
REMARK  163  A    between atoms: _411  and  _412
REMARK  164  A    between atoms: _414  and  _416
REMARK  165  A    between atoms: _416  and  _417
REMARK  166  A    between atoms: _416  and  _419
REMARK  167  A    between atoms: _419  and  _420
REMARK  168  A    between atoms: _422  and  _424
REMARK  169  A    between atoms: _424  and  _425
REMARK  170  A    between atoms: _428  and  _430
REMARK  171  A    between atoms: _430  and  _431
REMARK  172  A    between atoms: _430  and  _433
REMARK  173  A    between atoms: _433  and  _434
REMARK  174  A    between atoms: _437  and  _439
REMARK  175  A    between atoms: _439  and  _440
REMARK  176  A    between atoms: _439  and  _442
REMARK  177  A    between atoms: _442  and  _443
REMARK  178  A    between atoms: _453  and  _455
REMARK  179  A    between atoms: _455  and  _456
REMARK  180  A    between atoms: _455  and  _458
REMARK  181  A    between atoms: _458  and  _459
REMARK  182  A    between atoms: _459  and  _460
REMARK  183  A    between atoms: _465  and  _467
REMARK  184  A    between atoms: _467  and  _468
REMARK  185  A    between atoms: _467  and  _470
REMARK  186  A    between atoms: _473  and  _475
REMARK  187  A    between atoms: _475  and  _476
REMARK  188  A    between atoms: _475  and  _478
REMARK  189  A    between atoms: _478  and  _479
REMARK  190  A    between atoms: _482  and  _484
REMARK  191  A    between atoms: _484  and  _485
REMARK  192  A    between atoms: _488  and  _490
REMARK  193  A    between atoms: _490  and  _491
REMARK  194  A    between atoms: _490  and  _493
REMARK  195  A    between atoms: _496  and  _498
REMARK  196  A    between atoms: _498  and  _499
REMARK  197  A    between atoms: _498  and  _501
REMARK  198  A    between atoms: _501  and  _502
REMARK  199  A    between atoms: _508  and  _510
REMARK  200  A    between atoms: _510  and  _511
REMARK  201  A    between atoms: _510  and  _513
REMARK  202  A    between atoms: _513  and  _514
REMARK  203  A    between atoms: _516  and  _518
REMARK  204  A    between atoms: _518  and  _519
REMARK  205  A    between atoms: _518  and  _521
REMARK  206  A    between atoms: _521  and  _522
REMARK  207  A    between atoms: _527  and  _529
REMARK  208  A    between atoms: _529  and  _530
REMARK  209  A    between atoms: _529  and  _532
REMARK  210  A    between atoms: _532  and  _533
REMARK  211  A    between atoms: _543  and  _545
REMARK  212  A    between atoms: _545  and  _546
REMARK  213  A    between atoms: _545  and  _548
REMARK  214  A    between atoms: _548  and  _549
REMARK  215  A    between atoms: _552  and  _554
REMARK  216  A    between atoms: _554  and  _555
REMARK  217  A    between atoms: _554  and  _557
REMARK  218  A    between atoms: _557  and  _558
REMARK  219  A    between atoms: _563  and  _564
REMARK  220  A    between atoms: _566  and  _568
REMARK  221  A    between atoms: _568  and  _569
REMARK  222  A    between atoms: _568  and  _571
REMARK  223  A    between atoms: _571  and  _572
REMARK  224  A    between atoms: _575  and  _577
REMARK  225  A    between atoms: _577  and  _578
REMARK  226  A    between atoms: _577  and  _580
REMARK  227  A    between atoms: _580  and  _581
REMARK  228  A    between atoms: _581  and  _582
REMARK  229  A    between atoms: _585  and  _587
REMARK  230  A    between atoms: _587  and  _588
REMARK  231  A    between atoms: _587  and  _590
REMARK  232  A    between atoms: _590  and  _591
REMARK  233  A    between atoms: _596  and  _598
REMARK  234  A    between atoms: _598  and  _599
REMARK  235  A    between atoms: _601  and  _603
REMARK  236  A    between atoms: _603  and  _604
REMARK  237  A    between atoms: _603  and  _606
REMARK  238  A    between atoms: _606  and  _607
REMARK  239  A    between atoms: _607  and  _608
REMARK  240  A    between atoms: _610  and  _612
REMARK  241  A    between atoms: _612  and  _613
REMARK  242  A    between atoms: _612  and  _615
REMARK  243  A    between atoms: _615  and  _616
REMARK  244  A    between atoms: _619  and  _621
REMARK  245  A    between atoms: _621  and  _622
REMARK  246  A    between atoms: _621  and  _624
REMARK  247  A    between atoms: _624  and  _625
REMARK  248  A    between atoms: _635  and  _637
REMARK  249  A    between atoms: _637  and  _638
REMARK  250  A    between atoms: _637  and  _640
REMARK  251  A    between atoms: _640  and  _641
REMARK  252  A    between atoms: _643  and  _645
REMARK  253  A    between atoms: _645  and  _646
REMARK  254  A    between atoms: _645  and  _648
REMARK  255  A    between atoms: _648  and  _649
REMARK  256  A    between atoms: _654  and  _656
REMARK  257  A    between atoms: _656  and  _657
REMARK  258  A    between atoms: _656  and  _659
REMARK  259  A    between atoms: _659  and  _660
REMARK  260  A    between atoms: _666  and  _668
REMARK  261  A    between atoms: _668  and  _669
REMARK  262  A    between atoms: _668  and  _671
REMARK  263  A    between atoms: _671  and  _672
REMARK  264  A    between atoms: _672  and  _673
REMARK  265  A    between atoms: _676  and  _678
REMARK  266  A    between atoms: _678  and  _679
REMARK  267  A    between atoms: _678  and  _681
REMARK  268  A    between atoms: _681  and  _682
REMARK  269  A    between atoms: _692  and  _694
REMARK  270  A    between atoms: _694  and  _695
REMARK  271  A    between atoms: _694  and  _697
REMARK  272  A    between atoms: _697  and  _698
REMARK  273  A    between atoms: _701  and  _703
REMARK  274  A    between atoms: _703  and  _704
REMARK  275  A    between atoms: _703  and  _706
REMARK  276  A    between atoms: _706  and  _707
REMARK  277  A    between atoms: _709  and  _711
REMARK  278  A    between atoms: _711  and  _712
REMARK  279  A    between atoms: _711  and  _714
REMARK  280  A    between atoms: _714  and  _715
REMARK  281  A    between atoms: _717  and  _719
REMARK  282  A    between atoms: _719  and  _720
REMARK  283  A    between atoms: _719  and  _722
REMARK  284  A    between atoms: _722  and  _723
REMARK                            x       y       z     vdW  Elec       q    Type
REMARK                         _______ _______ _______ _____ _____    ______ ____
ROOT
ATOM      1  O   HOH     1      -8.711 -11.256  47.038  0.00  0.00    +0.000 OA
ENDROOT
TORSDOF 0
REMARK  Name = ../refined-set-2016/4qlk/4qlk_pocket.pdb
REMARK  284 active torsions:
REMARK  status: ('A' for Active; 'I' for Inactive)
REMARK    1  A    between atoms: _1  and  _3
REMARK    2  A    between atoms: _3  and  _4
REMARK    3  A    between atoms: _3  and  _6
REMARK    4  A    between atoms: _9  and  _11
REMARK    5  A    between atoms: _11  and  _12
REMARK    6  A    between atoms: _11  and  _14
REMARK    7  A    between atoms: _14  and  _15
REMARK    8  A    between atoms: _18  and  _20
REMARK    9  A    between atoms: _20  and  _21
REMARK   10  A    between atoms: _20  and  _23
REMARK   11  A    between atoms: _23  and  _24
REMARK   12  A    between atoms: _26  and  _28
REMARK   13  A    between atoms: _28  and  _29
REMARK   14  A    between atoms: _28  and  _31
REMARK   15  A    between atoms: _31  and  _32
REMARK   16  A    between atoms: _32  and  _33
REMARK   17  A    between atoms: _38  and  _40
REMARK   18  A    between atoms: _40  and  _41
REMARK   19  A    between atoms: _40  and  _43
REMARK   20  A    between atoms: _43  and  _44
REMARK   21  A    between atoms: _44  and  _45
REMARK   22  A    between atoms: _45  and  _46
REMARK   23  A    between atoms: _55  and  _57
REMARK   24  A    between atoms: _57  and  _58
REMARK   25  A    between atoms: _57  and  _60
REMARK   26  A    between atoms: _60  and  _61
REMARK   27  A    between atoms: _66  and  _68
REMARK   28  A    between atoms: _68  and  _69
REMARK   29  A    between atoms: _68  and  _71
REMARK   30  A    between atoms: _71  and  _72
REMARK   31  A    between atoms: _77  and  _78
REMARK   32  A    between atoms: _80  and  _82
REMARK   33  A    between atoms: _82  and  _83
REMARK   34  A    between atoms: _82  and  _85
REMARK   35  A    between atoms: _85  and  _86
REMARK   36  A    between atoms: _91  and  _93
REMARK   37  A    between atoms: _93  and  _94
REMARK   38  A    between atoms: _93  and  _96
REMARK   39  A    between atoms: _96  and  _97
REMARK   40  A    between atoms: _97  and  _98
REMARK   41  A    between atoms: _103  and  _105
REMARK   42  A    between atoms: _105  and  _106
REMARK   43  A    between atoms: _105  and  _108
REMARK   44  A    between atoms: _108  and  _109
REMARK   45  A    between atoms: _109  and  _110
REMARK   46  A    between atoms: _110  and  _111
REMARK   47  A    between atoms: _120  and  _122
REMARK   48  A    between atoms: _122  and  _123
REMARK   49  A    between atoms: _122  and  _125
REMARK   50  A    between atoms: _125  and  _126
REMARK   51  A    between atoms: _129  and  _131
REMARK   52  A    between atoms: _131  and  _132
REMARK   53  A    between atoms: _131  and  _134
REMARK   54  A    between atoms: _134  and  _135
REMARK   55  A    between atoms: _138  and  _140
REMARK   56  A    between atoms: _140  and  _141
REMARK   57  A    between atoms: _140  and  _143
REMARK   58  A    between atoms: _143  and  _144
REMARK   59  A    between atoms: _147  and  _149
REMARK   60  A    between atoms: _149  and  _150
REMARK   61  A    between atoms: _149  and  _152
REMARK   62  A    between atoms: _152  and  _153
REMARK   63  A    between atoms: _156  and  _158
REMARK   64  A    between atoms: _158  and  _159
REMARK   65  A    between atoms: _158  and  _161
REMARK   66  A    between atoms: _161  and  _162
REMARK   67  A    between atoms: _162  and  _163
REMARK   68  A    between atoms: _168  and  _170
REMARK   69  A    between atoms: _170  and  _171
REMARK   70  A    between atoms: _170  and  _173
REMARK   71  A    between atoms: _173  and  _174
REMARK   72  A    between atoms: _177  and  _179
REMARK   73  A    between atoms: _179  and  _180
REMARK   74  A    between atoms: _179  and  _182
REMARK   75  A    between atoms: _182  and  _183
REMARK   76  A    between atoms: _188  and  _190
REMARK   77  A    between atoms: _190  and  _191
REMARK   78  A    between atoms: _190  and  _193
REMARK   79  A    between atoms: _196  and  _198
REMARK   80  A    between atoms: _198  and  _199
REMARK   81  A    between atoms: _198  and  _201
REMARK   82  A    between atoms: _201  and  _202
REMARK   83  A    between atoms: _205  and  _207
REMARK   84  A    between atoms: _207  and  _208
REMARK   85  A    between atoms: _207  and  _210
REMARK   86  A    between atoms: _210  and  _211
REMARK   87  A    between atoms: _214  and  _216
REMARK   88  A    between atoms: _216  and  _217
REMARK   89  A    between atoms: _216  and  _219
REMARK   90  A    between atoms: _219  and  _220
REMARK   91  A    between atoms: _226  and  _228
REMARK   92  A    between atoms: _228  and  _229
REMARK   93  A    between atoms: _228  and  _231
REMARK   94  A    between atoms: _231  and  _232
REMARK   95  A    between atoms: _237  and  _239
REMARK   96  A    between atoms: _239  and  _240
REMARK   97  A    between atoms: _239  and  _242
REMARK   98  A    between atoms: _242  and  _243
REMARK   99  A    between atoms: _253  and  _255
REMARK  100  A    between atoms: _255  and  _256
REMARK  101  A    between atoms: _255  and  _258
REMARK  102  A    between atoms: _258  and  _259
REMARK  103  A    between atoms: _264  and  _265
REMARK  104  A    between atoms: _267  and  _269
REMARK  105  A    between atoms: _269  and  _270
REMARK  106  A    between atoms: _273  and  _275
REMARK  107  A    between atoms: _275  and  _276
REMARK  108  A    between atoms: _275  and  _278
REMARK  109  A    between atoms: _278  and  _279
REMARK  110  A    between atoms: _285  and  _287
REMARK  111  A    between atoms: _287  and  _288
REMARK  112  A    between atoms: _287  and  _290
REMARK  113  A    between atoms: _290  and  _291
REMARK  114  A    between atoms: _296  and  _298
REMARK  115  A    between atoms: _298  and  _299
REMARK  116  A    between atoms: _298  and  _301
REMARK  117  A    between atoms: _301  and  _302
REMARK  118  A    between atoms: _307  and  _309
REMARK  119  A    between atoms: _309  and  _310
REMARK  120  A    between atoms: _309  and  _312
REMARK  121  A    between atoms: _312  and  _313
REMARK  122  A    between atoms: _313  and  _314
REMARK  123  A    between atoms: _319  and  _321
REMARK  124  A    between atoms: _321  and  _322
REMARK  125  A    between atoms: _321  and  _324
REMARK  126  A    between atoms: _324  and  _325
REMARK  127  A    between atoms: _330  and  _331
REMARK  128  A    between atoms: _333  and  _335
REMARK  129  A    between atoms: _335  and  _336
REMARK  130  A    between atoms: _335  and  _338
REMARK  131  A    between atoms: _338  and  _339
REMARK  132  A    between atoms: _342  and  _344
REMARK  133  A    between atoms: _344  and  _345
REMARK  134  A    between atoms: _348  and  _350
REMARK  135  A    between atoms: _350  and  _351
REMARK  136  A    between atoms: _350  and  _353
REMARK  137  A    between atoms: _353  and  _354
REMARK  138  A    between atoms: _356  and  _358
REMARK  139  A    between atoms: _358  and  _359
REMARK  140  A    between atoms: _358  and  _361
REMARK  141  A    between atoms: _361  and  _362
REMARK  142  A    between atoms: _367  and  _368
REMARK  143  A    between atoms: _370  and  _372
REMARK  144  A    between atoms: _372  and  _373
REMARK  145  A    between atoms: _372  and  _375
REMARK  146  A    between atoms: _375  and  _376
REMARK  147  A    between atoms: _376  and  _377
REMARK  148  A    between atoms: _379  and  _381
REMARK  149  A    between atoms: _381  and  _382
REMARK  150  A    between atoms: _381  and  _384
REMARK  151  A    between atoms: _384  and  _385
REMARK  152  A    between atoms: _385  and  _386
REMARK  153  A    between atoms: _386  and  _387
REMARK  154  A    between atoms: _387  and  _388
REMARK  155  A    between atoms: _392  and  _394
REMARK  156  A    between atoms: _394  and  _395
REMARK  157  A    between atoms: _394  and  _397
REMARK  158  A    between atoms: _397  and  _398
REMARK  159  A    between atoms: _400  and  _402
REMARK  160  A    between atoms: _402  and  _403
REMARK  161  A    between atoms: _402  and  _405
REMARK  162  A    between atoms: _405  and  _406
REMARK  163  A    between atoms: _411  and  _412
REMARK  164  A    between atoms: _414  and  _416
REMARK  165  A    between atoms: _416  and  _417
REMARK  166  A    between atoms: _416  and  _419
REMARK  167  A    between atoms: _419  and  _420
REMARK  168  A    between atoms: _422  and  _424
REMARK  169  A    between atoms: _424  and  _425
REMARK  170  A    between atoms: _428  and  _430
REMARK  171  A    between atoms: _430  and  _431
REMARK  172  A    between atoms: _430  and  _433
REMARK  173  A    between atoms: _433  and  _434
REMARK  174  A    between atoms: _437  and  _439
REMARK  175  A    between atoms: _439  and  _440
REMARK  176  A    between atoms: _439  and  _442
REMARK  177  A    between atoms: _442  and  _443
REMARK  178  A    between atoms: _453  and  _455
REMARK  179  A    between atoms: _455  and  _456
REMARK  180  A    between atoms: _455  and  _458
REMARK  181  A    between atoms: _458  and  _459
REMARK  182  A    between atoms: _459  and  _460
REMARK  183  A    between atoms: _465  and  _467
REMARK  184  A    between atoms: _467  and  _468
REMARK  185  A    between atoms: _467  and  _470
REMARK  186  A    between atoms: _473  and  _475
REMARK  187  A    between atoms: _475  and  _476
REMARK  188  A    between atoms: _475  and  _478
REMARK  189  A    between atoms: _478  and  _479
REMARK  190  A    between atoms: _482  and  _484
REMARK  191  A    between atoms: _484  and  _485
REMARK  192  A    between atoms: _488  and  _490
REMARK  193  A    between atoms: _490  and  _491
REMARK  194  A    between atoms: _490  and  _493
REMARK  195  A    between atoms: _496  and  _498
REMARK  196  A    between atoms: _498  and  _499
REMARK  197  A    between atoms: _498  and  _501
REMARK  198  A    between atoms: _501  and  _502
REMARK  199  A    between atoms: _508  and  _510
REMARK  200  A    between atoms: _510  and  _511
REMARK  201  A    between atoms: _510  and  _513
REMARK  202  A    between atoms: _513  and  _514
REMARK  203  A    between atoms: _516  and  _518
REMARK  204  A    between atoms: _518  and  _519
REMARK  205  A    between atoms: _518  and  _521
REMARK  206  A    between atoms: _521  and  _522
REMARK  207  A    between atoms: _527  and  _529
REMARK  208  A    between atoms: _529  and  _530
REMARK  209  A    between atoms: _529  and  _532
REMARK  210  A    between atoms: _532  and  _533
REMARK  211  A    between atoms: _543  and  _545
REMARK  212  A    between atoms: _545  and  _546
REMARK  213  A    between atoms: _545  and  _548
REMARK  214  A    between atoms: _548  and  _549
REMARK  215  A    between atoms: _552  and  _554
REMARK  216  A    between atoms: _554  and  _555
REMARK  217  A    between atoms: _554  and  _557
REMARK  218  A    between atoms: _557  and  _558
REMARK  219  A    between atoms: _563  and  _564
REMARK  220  A    between atoms: _566  and  _568
REMARK  221  A    between atoms: _568  and  _569
REMARK  222  A    between atoms: _568  and  _571
REMARK  223  A    between atoms: _571  and  _572
REMARK  224  A    between atoms: _575  and  _577
REMARK  225  A    between atoms: _577  and  _578
REMARK  226  A    between atoms: _577  and  _580
REMARK  227  A    between atoms: _580  and  _581
REMARK  228  A    between atoms: _581  and  _582
REMARK  229  A    between atoms: _585  and  _587
REMARK  230  A    between atoms: _587  and  _588
REMARK  231  A    between atoms: _587  and  _590
REMARK  232  A    between atoms: _590  and  _591
REMARK  233  A    between atoms: _596  and  _598
REMARK  234  A    between atoms: _598  and  _599
REMARK  235  A    between atoms: _601  and  _603
REMARK  236  A    between atoms: _603  and  _604
REMARK  237  A    between atoms: _603  and  _606
REMARK  238  A    between atoms: _606  and  _607
REMARK  239  A    between atoms: _607  and  _608
REMARK  240  A    between atoms: _610  and  _612
REMARK  241  A    between atoms: _612  and  _613
REMARK  242  A    between atoms: _612  and  _615
REMARK  243  A    between atoms: _615  and  _616
REMARK  244  A    between atoms: _619  and  _621
REMARK  245  A    between atoms: _621  and  _622
REMARK  246  A    between atoms: _621  and  _624
REMARK  247  A    between atoms: _624  and  _625
REMARK  248  A    between atoms: _635  and  _637
REMARK  249  A    between atoms: _637  and  _638
REMARK  250  A    between atoms: _637  and  _640
REMARK  251  A    between atoms: _640  and  _641
REMARK  252  A    between atoms: _643  and  _645
REMARK  253  A    between atoms: _645  and  _646
REMARK  254  A    between atoms: _645  and  _648
REMARK  255  A    between atoms: _648  and  _649
REMARK  256  A    between atoms: _654  and  _656
REMARK  257  A    between atoms: _656  and  _657
REMARK  258  A    between atoms: _656  and  _659
REMARK  259  A    between atoms: _659  and  _660
REMARK  260  A    between atoms: _666  and  _668
REMARK  261  A    between atoms: _668  and  _669
REMARK  262  A    between atoms: _668  and  _671
REMARK  263  A    between atoms: _671  and  _672
REMARK  264  A    between atoms: _672  and  _673
REMARK  265  A    between atoms: _676  and  _678
REMARK  266  A    between atoms: _678  and  _679
REMARK  267  A    between atoms: _678  and  _681
REMARK  268  A    between atoms: _681  and  _682
REMARK  269  A    between atoms: _692  and  _694
REMARK  270  A    between atoms: _694  and  _695
REMARK  271  A    between atoms: _694  and  _697
REMARK  272  A    between atoms: _697  and  _698
REMARK  273  A    between atoms: _701  and  _703
REMARK  274  A    between atoms: _703  and  _704
REMARK  275  A    between atoms: _703  and  _706
REMARK  276  A    between atoms: _706  and  _707
REMARK  277  A    between atoms: _709  and  _711
REMARK  278  A    between atoms: _711  and  _712
REMARK  279  A    between atoms: _711  and  _714
REMARK  280  A    between atoms: _714  and  _715
REMARK  281  A    between atoms: _717  and  _719
REMARK  282  A    between atoms: _719  and  _720
REMARK  283  A    between atoms: _719  and  _722
REMARK  284  A    between atoms: _722  and  _723
REMARK                            x       y       z     vdW  Elec       q    Type
REMARK                         _______ _______ _______ _____ _____    ______ ____
ROOT
ATOM      1  O   HOH     1      -4.005  -3.108  43.846  0.00  0.00    +0.000 OA
ENDROOT
TORSDOF 0
REMARK  Name = ../refined-set-2016/4qlk/4qlk_pocket.pdb
REMARK  284 active torsions:
REMARK  status: ('A' for Active; 'I' for Inactive)
REMARK    1  A    between atoms: _1  and  _3
REMARK    2  A    between atoms: _3  and  _4
REMARK    3  A    between atoms: _3  and  _6
REMARK    4  A    between atoms: _9  and  _11
REMARK    5  A    between atoms: _11  and  _12
REMARK    6  A    between atoms: _11  and  _14
REMARK    7  A    between atoms: _14  and  _15
REMARK    8  A    between atoms: _18  and  _20
REMARK    9  A    between atoms: _20  and  _21
REMARK   10  A    between atoms: _20  and  _23
REMARK   11  A    between atoms: _23  and  _24
REMARK   12  A    between atoms: _26  and  _28
REMARK   13  A    between atoms: _28  and  _29
REMARK   14  A    between atoms: _28  and  _31
REMARK   15  A    between atoms: _31  and  _32
REMARK   16  A    between atoms: _32  and  _33
REMARK   17  A    between atoms: _38  and  _40
REMARK   18  A    between atoms: _40  and  _41
REMARK   19  A    between atoms: _40  and  _43
REMARK   20  A    between atoms: _43  and  _44
REMARK   21  A    between atoms: _44  and  _45
REMARK   22  A    between atoms: _45  and  _46
REMARK   23  A    between atoms: _55  and  _57
REMARK   24  A    between atoms: _57  and  _58
REMARK   25  A    between atoms: _57  and  _60
REMARK   26  A    between atoms: _60  and  _61
REMARK   27  A    between atoms: _66  and  _68
REMARK   28  A    between atoms: _68  and  _69
REMARK   29  A    between atoms: _68  and  _71
REMARK   30  A    between atoms: _71  and  _72
REMARK   31  A    between atoms: _77  and  _78
REMARK   32  A    between atoms: _80  and  _82
REMARK   33  A    between atoms: _82  and  _83
REMARK   34  A    between atoms: _82  and  _85
REMARK   35  A    between atoms: _85  and  _86
REMARK   36  A    between atoms: _91  and  _93
REMARK   37  A    between atoms: _93  and  _94
REMARK   38  A    between atoms: _93  and  _96
REMARK   39  A    between atoms: _96  and  _97
REMARK   40  A    between atoms: _97  and  _98
REMARK   41  A    between atoms: _103  and  _105
REMARK   42  A    between atoms: _105  and  _106
REMARK   43  A    between atoms: _105  and  _108
REMARK   44  A    between atoms: _108  and  _109
REMARK   45  A    between atoms: _109  and  _110
REMARK   46  A    between atoms: _110  and  _111
REMARK   47  A    between atoms: _120  and  _122
REMARK   48  A    between atoms: _122  and  _123
REMARK   49  A    between atoms: _122  and  _125
REMARK   50  A    between atoms: _125  and  _126
REMARK   51  A    between atoms: _129  and  _131
REMARK   52  A    between atoms: _131  and  _132
REMARK   53  A    between atoms: _131  and  _134
REMARK   54  A    between atoms: _134  and  _135
REMARK   55  A    between atoms: _138  and  _140
REMARK   56  A    between atoms: _140  and  _141
REMARK   57  A    between atoms: _140  and  _143
REMARK   58  A    between atoms: _143  and  _144
REMARK   59  A    between atoms: _147  and  _149
REMARK   60  A    between atoms: _149  and  _150
REMARK   61  A    between atoms: _149  and  _152
REMARK   62  A    between atoms: _152  and  _153
REMARK   63  A    between atoms: _156  and  _158
REMARK   64  A    between atoms: _158  and  _159
REMARK   65  A    between atoms: _158  and  _161
REMARK   66  A    between atoms: _161  and  _162
REMARK   67  A    between atoms: _162  and  _163
REMARK   68  A    between atoms: _168  and  _170
REMARK   69  A    between atoms: _170  and  _171
REMARK   70  A    between atoms: _170  and  _173
REMARK   71  A    between atoms: _173  and  _174
REMARK   72  A    between atoms: _177  and  _179
REMARK   73  A    between atoms: _179  and  _180
REMARK   74  A    between atoms: _179  and  _182
REMARK   75  A    between atoms: _182  and  _183
REMARK   76  A    between atoms: _188  and  _190
REMARK   77  A    between atoms: _190  and  _191
REMARK   78  A    between atoms: _190  and  _193
REMARK   79  A    between atoms: _196  and  _198
REMARK   80  A    between atoms: _198  and  _199
REMARK   81  A    between atoms: _198  and  _201
REMARK   82  A    between atoms: _201  and  _202
REMARK   83  A    between atoms: _205  and  _207
REMARK   84  A    between atoms: _207  and  _208
REMARK   85  A    between atoms: _207  and  _210
REMARK   86  A    between atoms: _210  and  _211
REMARK   87  A    between atoms: _214  and  _216
REMARK   88  A    between atoms: _216  and  _217
REMARK   89  A    between atoms: _216  and  _219
REMARK   90  A    between atoms: _219  and  _220
REMARK   91  A    between atoms: _226  and  _228
REMARK   92  A    between atoms: _228  and  _229
REMARK   93  A    between atoms: _228  and  _231
REMARK   94  A    between atoms: _231  and  _232
REMARK   95  A    between atoms: _237  and  _239
REMARK   96  A    between atoms: _239  and  _240
REMARK   97  A    between atoms: _239  and  _242
REMARK   98  A    between atoms: _242  and  _243
REMARK   99  A    between atoms: _253  and  _255
REMARK  100  A    between atoms: _255  and  _256
REMARK  101  A    between atoms: _255  and  _258
REMARK  102  A    between atoms: _258  and  _259
REMARK  103  A    between atoms: _264  and  _265
REMARK  104  A    between atoms: _267  and  _269
REMARK  105  A    between atoms: _269  and  _270
REMARK  106  A    between atoms: _273  and  _275
REMARK  107  A    between atoms: _275  and  _276
REMARK  108  A    between atoms: _275  and  _278
REMARK  109  A    between atoms: _278  and  _279
REMARK  110  A    between atoms: _285  and  _287
REMARK  111  A    between atoms: _287  and  _288
REMARK  112  A    between atoms: _287  and  _290
REMARK  113  A    between atoms: _290  and  _291
REMARK  114  A    between atoms: _296  and  _298
REMARK  115  A    between atoms: _298  and  _299
REMARK  116  A    between atoms: _298  and  _301
REMARK  117  A    between atoms: _301  and  _302
REMARK  118  A    between atoms: _307  and  _309
REMARK  119  A    between atoms: _309  and  _310
REMARK  120  A    between atoms: _309  and  _312
REMARK  121  A    between atoms: _312  and  _313
REMARK  122  A    between atoms: _313  and  _314
REMARK  123  A    between atoms: _319  and  _321
REMARK  124  A    between atoms: _321  and  _322
REMARK  125  A    between atoms: _321  and  _324
REMARK  126  A    between atoms: _324  and  _325
REMARK  127  A    between atoms: _330  and  _331
REMARK  128  A    between atoms: _333  and  _335
REMARK  129  A    between atoms: _335  and  _336
REMARK  130  A    between atoms: _335  and  _338
REMARK  131  A    between atoms: _338  and  _339
REMARK  132  A    between atoms: _342  and  _344
REMARK  133  A    between atoms: _344  and  _345
REMARK  134  A    between atoms: _348  and  _350
REMARK  135  A    between atoms: _350  and  _351
REMARK  136  A    between atoms: _350  and  _353
REMARK  137  A    between atoms: _353  and  _354
REMARK  138  A    between atoms: _356  and  _358
REMARK  139  A    between atoms: _358  and  _359
REMARK  140  A    between atoms: _358  and  _361
REMARK  141  A    between atoms: _361  and  _362
REMARK  142  A    between atoms: _367  and  _368
REMARK  143  A    between atoms: _370  and  _372
REMARK  144  A    between atoms: _372  and  _373
REMARK  145  A    between atoms: _372  and  _375
REMARK  146  A    between atoms: _375  and  _376
REMARK  147  A    between atoms: _376  and  _377
REMARK  148  A    between atoms: _379  and  _381
REMARK  149  A    between atoms: _381  and  _382
REMARK  150  A    between atoms: _381  and  _384
REMARK  151  A    between atoms: _384  and  _385
REMARK  152  A    between atoms: _385  and  _386
REMARK  153  A    between atoms: _386  and  _387
REMARK  154  A    between atoms: _387  and  _388
REMARK  155  A    between atoms: _392  and  _394
REMARK  156  A    between atoms: _394  and  _395
REMARK  157  A    between atoms: _394  and  _397
REMARK  158  A    between atoms: _397  and  _398
REMARK  159  A    between atoms: _400  and  _402
REMARK  160  A    between atoms: _402  and  _403
REMARK  161  A    between atoms: _402  and  _405
REMARK  162  A    between atoms: _405  and  _406
REMARK  163  A    between atoms: _411  and  _412
REMARK  164  A    between atoms: _414  and  _416
REMARK  165  A    between atoms: _416  and  _417
REMARK  166  A    between atoms: _416  and  _419
REMARK  167  A    between atoms: _419  and  _420
REMARK  168  A    between atoms: _422  and  _424
REMARK  169  A    between atoms: _424  and  _425
REMARK  170  A    between atoms: _428  and  _430
REMARK  171  A    between atoms: _430  and  _431
REMARK  172  A    between atoms: _430  and  _433
REMARK  173  A    between atoms: _433  and  _434
REMARK  174  A    between atoms: _437  and  _439
REMARK  175  A    between atoms: _439  and  _440
REMARK  176  A    between atoms: _439  and  _442
REMARK  177  A    between atoms: _442  and  _443
REMARK  178  A    between atoms: _453  and  _455
REMARK  179  A    between atoms: _455  and  _456
REMARK  180  A    between atoms: _455  and  _458
REMARK  181  A    between atoms: _458  and  _459
REMARK  182  A    between atoms: _459  and  _460
REMARK  183  A    between atoms: _465  and  _467
REMARK  184  A    between atoms: _467  and  _468
REMARK  185  A    between atoms: _467  and  _470
REMARK  186  A    between atoms: _473  and  _475
REMARK  187  A    between atoms: _475  and  _476
REMARK  188  A    between atoms: _475  and  _478
REMARK  189  A    between atoms: _478  and  _479
REMARK  190  A    between atoms: _482  and  _484
REMARK  191  A    between atoms: _484  and  _485
REMARK  192  A    between atoms: _488  and  _490
REMARK  193  A    between atoms: _490  and  _491
REMARK  194  A    between atoms: _490  and  _493
REMARK  195  A    between atoms: _496  and  _498
REMARK  196  A    between atoms: _498  and  _499
REMARK  197  A    between atoms: _498  and  _501
REMARK  198  A    between atoms: _501  and  _502
REMARK  199  A    between atoms: _508  and  _510
REMARK  200  A    between atoms: _510  and  _511
REMARK  201  A    between atoms: _510  and  _513
REMARK  202  A    between atoms: _513  and  _514
REMARK  203  A    between atoms: _516  and  _518
REMARK  204  A    between atoms: _518  and  _519
REMARK  205  A    between atoms: _518  and  _521
REMARK  206  A    between atoms: _521  and  _522
REMARK  207  A    between atoms: _527  and  _529
REMARK  208  A    between atoms: _529  and  _530
REMARK  209  A    between atoms: _529  and  _532
REMARK  210  A    between atoms: _532  and  _533
REMARK  211  A    between atoms: _543  and  _545
REMARK  212  A    between atoms: _545  and  _546
REMARK  213  A    between atoms: _545  and  _548
REMARK  214  A    between atoms: _548  and  _549
REMARK  215  A    between atoms: _552  and  _554
REMARK  216  A    between atoms: _554  and  _555
REMARK  217  A    between atoms: _554  and  _557
REMARK  218  A    between atoms: _557  and  _558
REMARK  219  A    between atoms: _563  and  _564
REMARK  220  A    between atoms: _566  and  _568
REMARK  221  A    between atoms: _568  and  _569
REMARK  222  A    between atoms: _568  and  _571
REMARK  223  A    between atoms: _571  and  _572
REMARK  224  A    between atoms: _575  and  _577
REMARK  225  A    between atoms: _577  and  _578
REMARK  226  A    between atoms: _577  and  _580
REMARK  227  A    between atoms: _580  and  _581
REMARK  228  A    between atoms: _581  and  _582
REMARK  229  A    between atoms: _585  and  _587
REMARK  230  A    between atoms: _587  and  _588
REMARK  231  A    between atoms: _587  and  _590
REMARK  232  A    between atoms: _590  and  _591
REMARK  233  A    between atoms: _596  and  _598
REMARK  234  A    between atoms: _598  and  _599
REMARK  235  A    between atoms: _601  and  _603
REMARK  236  A    between atoms: _603  and  _604
REMARK  237  A    between atoms: _603  and  _606
REMARK  238  A    between atoms: _606  and  _607
REMARK  239  A    between atoms: _607  and  _608
REMARK  240  A    between atoms: _610  and  _612
REMARK  241  A    between atoms: _612  and  _613
REMARK  242  A    between atoms: _612  and  _615
REMARK  243  A    between atoms: _615  and  _616
REMARK  244  A    between atoms: _619  and  _621
REMARK  245  A    between atoms: _621  and  _622
REMARK  246  A    between atoms: _621  and  _624
REMARK  247  A    between atoms: _624  and  _625
REMARK  248  A    between atoms: _635  and  _637
REMARK  249  A    between atoms: _637  and  _638
REMARK  250  A    between atoms: _637  and  _640
REMARK  251  A    between atoms: _640  and  _641
REMARK  252  A    between atoms: _643  and  _645
REMARK  253  A    between atoms: _645  and  _646
REMARK  254  A    between atoms: _645  and  _648
REMARK  255  A    between atoms: _648  and  _649
REMARK  256  A    between atoms: _654  and  _656
REMARK  257  A    between atoms: _656  and  _657
REMARK  258  A    between atoms: _656  and  _659
REMARK  259  A    between atoms: _659  and  _660
REMARK  260  A    between atoms: _666  and  _668
REMARK  261  A    between atoms: _668  and  _669
REMARK  262  A    between atoms: _668  and  _671
REMARK  263  A    between atoms: _671  and  _672
REMARK  264  A    between atoms: _672  and  _673
REMARK  265  A    between atoms: _676  and  _678
REMARK  266  A    between atoms: _678  and  _679
REMARK  267  A    between atoms: _678  and  _681
REMARK  268  A    between atoms: _681  and  _682
REMARK  269  A    between atoms: _692  and  _694
REMARK  270  A    between atoms: _694  and  _695
REMARK  271  A    between atoms: _694  and  _697
REMARK  272  A    between atoms: _697  and  _698
REMARK  273  A    between atoms: _701  and  _703
REMARK  274  A    between atoms: _703  and  _704
REMARK  275  A    between atoms: _703  and  _706
REMARK  276  A    between atoms: _706  and  _707
REMARK  277  A    between atoms: _709  and  _711
REMARK  278  A    between atoms: _711  and  _712
REMARK  279  A    between atoms: _711  and  _714
REMARK  280  A    between atoms: _714  and  _715
REMARK  281  A    between atoms: _717  and  _719
REMARK  282  A    between atoms: _719  and  _720
REMARK  283  A    between atoms: _719  and  _722
REMARK  284  A    between atoms: _722  and  _723
REMARK                            x       y       z     vdW  Elec       q    Type
REMARK                         _______ _______ _______ _____ _____    ______ ____
ROOT
ATOM      1  O   HOH     1       6.543   0.707  42.775  0.00  0.00    +0.000 OA
ENDROOT
TORSDOF 0
REMARK  Name = ../refined-set-2016/4qlk/4qlk_pocket.pdb
REMARK  284 active torsions:
REMARK  status: ('A' for Active; 'I' for Inactive)
REMARK    1  A    between atoms: _1  and  _3
REMARK    2  A    between atoms: _3  and  _4
REMARK    3  A    between atoms: _3  and  _6
REMARK    4  A    between atoms: _9  and  _11
REMARK    5  A    between atoms: _11  and  _12
REMARK    6  A    between atoms: _11  and  _14
REMARK    7  A    between atoms: _14  and  _15
REMARK    8  A    between atoms: _18  and  _20
REMARK    9  A    between atoms: _20  and  _21
REMARK   10  A    between atoms: _20  and  _23
REMARK   11  A    between atoms: _23  and  _24
REMARK   12  A    between atoms: _26  and  _28
REMARK   13  A    between atoms: _28  and  _29
REMARK   14  A    between atoms: _28  and  _31
REMARK   15  A    between atoms: _31  and  _32
REMARK   16  A    between atoms: _32  and  _33
REMARK   17  A    between atoms: _38  and  _40
REMARK   18  A    between atoms: _40  and  _41
REMARK   19  A    between atoms: _40  and  _43
REMARK   20  A    between atoms: _43  and  _44
REMARK   21  A    between atoms: _44  and  _45
REMARK   22  A    between atoms: _45  and  _46
REMARK   23  A    between atoms: _55  and  _57
REMARK   24  A    between atoms: _57  and  _58
REMARK   25  A    between atoms: _57  and  _60
REMARK   26  A    between atoms: _60  and  _61
REMARK   27  A    between atoms: _66  and  _68
REMARK   28  A    between atoms: _68  and  _69
REMARK   29  A    between atoms: _68  and  _71
REMARK   30  A    between atoms: _71  and  _72
REMARK   31  A    between atoms: _77  and  _78
REMARK   32  A    between atoms: _80  and  _82
REMARK   33  A    between atoms: _82  and  _83
REMARK   34  A    between atoms: _82  and  _85
REMARK   35  A    between atoms: _85  and  _86
REMARK   36  A    between atoms: _91  and  _93
REMARK   37  A    between atoms: _93  and  _94
REMARK   38  A    between atoms: _93  and  _96
REMARK   39  A    between atoms: _96  and  _97
REMARK   40  A    between atoms: _97  and  _98
REMARK   41  A    between atoms: _103  and  _105
REMARK   42  A    between atoms: _105  and  _106
REMARK   43  A    between atoms: _105  and  _108
REMARK   44  A    between atoms: _108  and  _109
REMARK   45  A    between atoms: _109  and  _110
REMARK   46  A    between atoms: _110  and  _111
REMARK   47  A    between atoms: _120  and  _122
REMARK   48  A    between atoms: _122  and  _123
REMARK   49  A    between atoms: _122  and  _125
REMARK   50  A    between atoms: _125  and  _126
REMARK   51  A    between atoms: _129  and  _131
REMARK   52  A    between atoms: _131  and  _132
REMARK   53  A    between atoms: _131  and  _134
REMARK   54  A    between atoms: _134  and  _135
REMARK   55  A    between atoms: _138  and  _140
REMARK   56  A    between atoms: _140  and  _141
REMARK   57  A    between atoms: _140  and  _143
REMARK   58  A    between atoms: _143  and  _144
REMARK   59  A    between atoms: _147  and  _149
REMARK   60  A    between atoms: _149  and  _150
REMARK   61  A    between atoms: _149  and  _152
REMARK   62  A    between atoms: _152  and  _153
REMARK   63  A    between atoms: _156  and  _158
REMARK   64  A    between atoms: _158  and  _159
REMARK   65  A    between atoms: _158  and  _161
REMARK   66  A    between atoms: _161  and  _162
REMARK   67  A    between atoms: _162  and  _163
REMARK   68  A    between atoms: _168  and  _170
REMARK   69  A    between atoms: _170  and  _171
REMARK   70  A    between atoms: _170  and  _173
REMARK   71  A    between atoms: _173  and  _174
REMARK   72  A    between atoms: _177  and  _179
REMARK   73  A    between atoms: _179  and  _180
REMARK   74  A    between atoms: _179  and  _182
REMARK   75  A    between atoms: _182  and  _183
REMARK   76  A    between atoms: _188  and  _190
REMARK   77  A    between atoms: _190  and  _191
REMARK   78  A    between atoms: _190  and  _193
REMARK   79  A    between atoms: _196  and  _198
REMARK   80  A    between atoms: _198  and  _199
REMARK   81  A    between atoms: _198  and  _201
REMARK   82  A    between atoms: _201  and  _202
REMARK   83  A    between atoms: _205  and  _207
REMARK   84  A    between atoms: _207  and  _208
REMARK   85  A    between atoms: _207  and  _210
REMARK   86  A    between atoms: _210  and  _211
REMARK   87  A    between atoms: _214  and  _216
REMARK   88  A    between atoms: _216  and  _217
REMARK   89  A    between atoms: _216  and  _219
REMARK   90  A    between atoms: _219  and  _220
REMARK   91  A    between atoms: _226  and  _228
REMARK   92  A    between atoms: _228  and  _229
REMARK   93  A    between atoms: _228  and  _231
REMARK   94  A    between atoms: _231  and  _232
REMARK   95  A    between atoms: _237  and  _239
REMARK   96  A    between atoms: _239  and  _240
REMARK   97  A    between atoms: _239  and  _242
REMARK   98  A    between atoms: _242  and  _243
REMARK   99  A    between atoms: _253  and  _255
REMARK  100  A    between atoms: _255  and  _256
REMARK  101  A    between atoms: _255  and  _258
REMARK  102  A    between atoms: _258  and  _259
REMARK  103  A    between atoms: _264  and  _265
REMARK  104  A    between atoms: _267  and  _269
REMARK  105  A    between atoms: _269  and  _270
REMARK  106  A    between atoms: _273  and  _275
REMARK  107  A    between atoms: _275  and  _276
REMARK  108  A    between atoms: _275  and  _278
REMARK  109  A    between atoms: _278  and  _279
REMARK  110  A    between atoms: _285  and  _287
REMARK  111  A    between atoms: _287  and  _288
REMARK  112  A    between atoms: _287  and  _290
REMARK  113  A    between atoms: _290  and  _291
REMARK  114  A    between atoms: _296  and  _298
REMARK  115  A    between atoms: _298  and  _299
REMARK  116  A    between atoms: _298  and  _301
REMARK  117  A    between atoms: _301  and  _302
REMARK  118  A    between atoms: _307  and  _309
REMARK  119  A    between atoms: _309  and  _310
REMARK  120  A    between atoms: _309  and  _312
REMARK  121  A    between atoms: _312  and  _313
REMARK  122  A    between atoms: _313  and  _314
REMARK  123  A    between atoms: _319  and  _321
REMARK  124  A    between atoms: _321  and  _322
REMARK  125  A    between atoms: _321  and  _324
REMARK  126  A    between atoms: _324  and  _325
REMARK  127  A    between atoms: _330  and  _331
REMARK  128  A    between atoms: _333  and  _335
REMARK  129  A    between atoms: _335  and  _336
REMARK  130  A    between atoms: _335  and  _338
REMARK  131  A    between atoms: _338  and  _339
REMARK  132  A    between atoms: _342  and  _344
REMARK  133  A    between atoms: _344  and  _345
REMARK  134  A    between atoms: _348  and  _350
REMARK  135  A    between atoms: _350  and  _351
REMARK  136  A    between atoms: _350  and  _353
REMARK  137  A    between atoms: _353  and  _354
REMARK  138  A    between atoms: _356  and  _358
REMARK  139  A    between atoms: _358  and  _359
REMARK  140  A    between atoms: _358  and  _361
REMARK  141  A    between atoms: _361  and  _362
REMARK  142  A    between atoms: _367  and  _368
REMARK  143  A    between atoms: _370  and  _372
REMARK  144  A    between atoms: _372  and  _373
REMARK  145  A    between atoms: _372  and  _375
REMARK  146  A    between atoms: _375  and  _376
REMARK  147  A    between atoms: _376  and  _377
REMARK  148  A    between atoms: _379  and  _381
REMARK  149  A    between atoms: _381  and  _382
REMARK  150  A    between atoms: _381  and  _384
REMARK  151  A    between atoms: _384  and  _385
REMARK  152  A    between atoms: _385  and  _386
REMARK  153  A    between atoms: _386  and  _387
REMARK  154  A    between atoms: _387  and  _388
REMARK  155  A    between atoms: _392  and  _394
REMARK  156  A    between atoms: _394  and  _395
REMARK  157  A    between atoms: _394  and  _397
REMARK  158  A    between atoms: _397  and  _398
REMARK  159  A    between atoms: _400  and  _402
REMARK  160  A    between atoms: _402  and  _403
REMARK  161  A    between atoms: _402  and  _405
REMARK  162  A    between atoms: _405  and  _406
REMARK  163  A    between atoms: _411  and  _412
REMARK  164  A    between atoms: _414  and  _416
REMARK  165  A    between atoms: _416  and  _417
REMARK  166  A    between atoms: _416  and  _419
REMARK  167  A    between atoms: _419  and  _420
REMARK  168  A    between atoms: _422  and  _424
REMARK  169  A    between atoms: _424  and  _425
REMARK  170  A    between atoms: _428  and  _430
REMARK  171  A    between atoms: _430  and  _431
REMARK  172  A    between atoms: _430  and  _433
REMARK  173  A    between atoms: _433  and  _434
REMARK  174  A    between atoms: _437  and  _439
REMARK  175  A    between atoms: _439  and  _440
REMARK  176  A    between atoms: _439  and  _442
REMARK  177  A    between atoms: _442  and  _443
REMARK  178  A    between atoms: _453  and  _455
REMARK  179  A    between atoms: _455  and  _456
REMARK  180  A    between atoms: _455  and  _458
REMARK  181  A    between atoms: _458  and  _459
REMARK  182  A    between atoms: _459  and  _460
REMARK  183  A    between atoms: _465  and  _467
REMARK  184  A    between atoms: _467  and  _468
REMARK  185  A    between atoms: _467  and  _470
REMARK  186  A    between atoms: _473  and  _475
REMARK  187  A    between atoms: _475  and  _476
REMARK  188  A    between atoms: _475  and  _478
REMARK  189  A    between atoms: _478  and  _479
REMARK  190  A    between atoms: _482  and  _484
REMARK  191  A    between atoms: _484  and  _485
REMARK  192  A    between atoms: _488  and  _490
REMARK  193  A    between atoms: _490  and  _491
REMARK  194  A    between atoms: _490  and  _493
REMARK  195  A    between atoms: _496  and  _498
REMARK  196  A    between atoms: _498  and  _499
REMARK  197  A    between atoms: _498  and  _501
REMARK  198  A    between atoms: _501  and  _502
REMARK  199  A    between atoms: _508  and  _510
REMARK  200  A    between atoms: _510  and  _511
REMARK  201  A    between atoms: _510  and  _513
REMARK  202  A    between atoms: _513  and  _514
REMARK  203  A    between atoms: _516  and  _518
REMARK  204  A    between atoms: _518  and  _519
REMARK  205  A    between atoms: _518  and  _521
REMARK  206  A    between atoms: _521  and  _522
REMARK  207  A    between atoms: _527  and  _529
REMARK  208  A    between atoms: _529  and  _530
REMARK  209  A    between atoms: _529  and  _532
REMARK  210  A    between atoms: _532  and  _533
REMARK  211  A    between atoms: _543  and  _545
REMARK  212  A    between atoms: _545  and  _546
REMARK  213  A    between atoms: _545  and  _548
REMARK  214  A    between atoms: _548  and  _549
REMARK  215  A    between atoms: _552  and  _554
REMARK  216  A    between atoms: _554  and  _555
REMARK  217  A    between atoms: _554  and  _557
REMARK  218  A    between atoms: _557  and  _558
REMARK  219  A    between atoms: _563  and  _564
REMARK  220  A    between atoms: _566  and  _568
REMARK  221  A    between atoms: _568  and  _569
REMARK  222  A    between atoms: _568  and  _571
REMARK  223  A    between atoms: _571  and  _572
REMARK  224  A    between atoms: _575  and  _577
REMARK  225  A    between atoms: _577  and  _578
REMARK  226  A    between atoms: _577  and  _580
REMARK  227  A    between atoms: _580  and  _581
REMARK  228  A    between atoms: _581  and  _582
REMARK  229  A    between atoms: _585  and  _587
REMARK  230  A    between atoms: _587  and  _588
REMARK  231  A    between atoms: _587  and  _590
REMARK  232  A    between atoms: _590  and  _591
REMARK  233  A    between atoms: _596  and  _598
REMARK  234  A    between atoms: _598  and  _599
REMARK  235  A    between atoms: _601  and  _603
REMARK  236  A    between atoms: _603  and  _604
REMARK  237  A    between atoms: _603  and  _606
REMARK  238  A    between atoms: _606  and  _607
REMARK  239  A    between atoms: _607  and  _608
REMARK  240  A    between atoms: _610  and  _612
REMARK  241  A    between atoms: _612  and  _613
REMARK  242  A    between atoms: _612  and  _615
REMARK  243  A    between atoms: _615  and  _616
REMARK  244  A    between atoms: _619  and  _621
REMARK  245  A    between atoms: _621  and  _622
REMARK  246  A    between atoms: _621  and  _624
REMARK  247  A    between atoms: _624  and  _625
REMARK  248  A    between atoms: _635  and  _637
REMARK  249  A    between atoms: _637  and  _638
REMARK  250  A    between atoms: _637  and  _640
REMARK  251  A    between atoms: _640  and  _641
REMARK  252  A    between atoms: _643  and  _645
REMARK  253  A    between atoms: _645  and  _646
REMARK  254  A    between atoms: _645  and  _648
REMARK  255  A    between atoms: _648  and  _649
REMARK  256  A    between atoms: _654  and  _656
REMARK  257  A    between atoms: _656  and  _657
REMARK  258  A    between atoms: _656  and  _659
REMARK  259  A    between atoms: _659  and  _660
REMARK  260  A    between atoms: _666  and  _668
REMARK  261  A    between atoms: _668  and  _669
REMARK  262  A    between atoms: _668  and  _671
REMARK  263  A    between atoms: _671  and  _672
REMARK  264  A    between atoms: _672  and  _673
REMARK  265  A    between atoms: _676  and  _678
REMARK  266  A    between atoms: _678  and  _679
REMARK  267  A    between atoms: _678  and  _681
REMARK  268  A    between atoms: _681  and  _682
REMARK  269  A    between atoms: _692  and  _694
REMARK  270  A    between atoms: _694  and  _695
REMARK  271  A    between atoms: _694  and  _697
REMARK  272  A    between atoms: _697  and  _698
REMARK  273  A    between atoms: _701  and  _703
REMARK  274  A    between atoms: _703  and  _704
REMARK  275  A    between atoms: _703  and  _706
REMARK  276  A    between atoms: _706  and  _707
REMARK  277  A    between atoms: _709  and  _711
REMARK  278  A    between atoms: _711  and  _712
REMARK  279  A    between atoms: _711  and  _714
REMARK  280  A    between atoms: _714  and  _715
REMARK  281  A    between atoms: _717  and  _719
REMARK  282  A    between atoms: _719  and  _720
REMARK  283  A    between atoms: _719  and  _722
REMARK  284  A    between atoms: _722  and  _723
REMARK                            x       y       z     vdW  Elec       q    Type
REMARK                         _______ _______ _______ _____ _____    ______ ____
ROOT
ATOM      1  O   HOH     1       4.365  -1.115  42.882  0.00  0.00    +0.000 OA
ENDROOT
TORSDOF 0
REMARK  Name = ../refined-set-2016/4qlk/4qlk_pocket.pdb
REMARK  284 active torsions:
REMARK  status: ('A' for Active; 'I' for Inactive)
REMARK    1  A    between atoms: _1  and  _3
REMARK    2  A    between atoms: _3  and  _4
REMARK    3  A    between atoms: _3  and  _6
REMARK    4  A    between atoms: _9  and  _11
REMARK    5  A    between atoms: _11  and  _12
REMARK    6  A    between atoms: _11  and  _14
REMARK    7  A    between atoms: _14  and  _15
REMARK    8  A    between atoms: _18  and  _20
REMARK    9  A    between atoms: _20  and  _21
REMARK   10  A    between atoms: _20  and  _23
REMARK   11  A    between atoms: _23  and  _24
REMARK   12  A    between atoms: _26  and  _28
REMARK   13  A    between atoms: _28  and  _29
REMARK   14  A    between atoms: _28  and  _31
REMARK   15  A    between atoms: _31  and  _32
REMARK   16  A    between atoms: _32  and  _33
REMARK   17  A    between atoms: _38  and  _40
REMARK   18  A    between atoms: _40  and  _41
REMARK   19  A    between atoms: _40  and  _43
REMARK   20  A    between atoms: _43  and  _44
REMARK   21  A    between atoms: _44  and  _45
REMARK   22  A    between atoms: _45  and  _46
REMARK   23  A    between atoms: _55  and  _57
REMARK   24  A    between atoms: _57  and  _58
REMARK   25  A    between atoms: _57  and  _60
REMARK   26  A    between atoms: _60  and  _61
REMARK   27  A    between atoms: _66  and  _68
REMARK   28  A    between atoms: _68  and  _69
REMARK   29  A    between atoms: _68  and  _71
REMARK   30  A    between atoms: _71  and  _72
REMARK   31  A    between atoms: _77  and  _78
REMARK   32  A    between atoms: _80  and  _82
REMARK   33  A    between atoms: _82  and  _83
REMARK   34  A    between atoms: _82  and  _85
REMARK   35  A    between atoms: _85  and  _86
REMARK   36  A    between atoms: _91  and  _93
REMARK   37  A    between atoms: _93  and  _94
REMARK   38  A    between atoms: _93  and  _96
REMARK   39  A    between atoms: _96  and  _97
REMARK   40  A    between atoms: _97  and  _98
REMARK   41  A    between atoms: _103  and  _105
REMARK   42  A    between atoms: _105  and  _106
REMARK   43  A    between atoms: _105  and  _108
REMARK   44  A    between atoms: _108  and  _109
REMARK   45  A    between atoms: _109  and  _110
REMARK   46  A    between atoms: _110  and  _111
REMARK   47  A    between atoms: _120  and  _122
REMARK   48  A    between atoms: _122  and  _123
REMARK   49  A    between atoms: _122  and  _125
REMARK   50  A    between atoms: _125  and  _126
REMARK   51  A    between atoms: _129  and  _131
REMARK   52  A    between atoms: _131  and  _132
REMARK   53  A    between atoms: _131  and  _134
REMARK   54  A    between atoms: _134  and  _135
REMARK   55  A    between atoms: _138  and  _140
REMARK   56  A    between atoms: _140  and  _141
REMARK   57  A    between atoms: _140  and  _143
REMARK   58  A    between atoms: _143  and  _144
REMARK   59  A    between atoms: _147  and  _149
REMARK   60  A    between atoms: _149  and  _150
REMARK   61  A    between atoms: _149  and  _152
REMARK   62  A    between atoms: _152  and  _153
REMARK   63  A    between atoms: _156  and  _158
REMARK   64  A    between atoms: _158  and  _159
REMARK   65  A    between atoms: _158  and  _161
REMARK   66  A    between atoms: _161  and  _162
REMARK   67  A    between atoms: _162  and  _163
REMARK   68  A    between atoms: _168  and  _170
REMARK   69  A    between atoms: _170  and  _171
REMARK   70  A    between atoms: _170  and  _173
REMARK   71  A    between atoms: _173  and  _174
REMARK   72  A    between atoms: _177  and  _179
REMARK   73  A    between atoms: _179  and  _180
REMARK   74  A    between atoms: _179  and  _182
REMARK   75  A    between atoms: _182  and  _183
REMARK   76  A    between atoms: _188  and  _190
REMARK   77  A    between atoms: _190  and  _191
REMARK   78  A    between atoms: _190  and  _193
REMARK   79  A    between atoms: _196  and  _198
REMARK   80  A    between atoms: _198  and  _199
REMARK   81  A    between atoms: _198  and  _201
REMARK   82  A    between atoms: _201  and  _202
REMARK   83  A    between atoms: _205  and  _207
REMARK   84  A    between atoms: _207  and  _208
REMARK   85  A    between atoms: _207  and  _210
REMARK   86  A    between atoms: _210  and  _211
REMARK   87  A    between atoms: _214  and  _216
REMARK   88  A    between atoms: _216  and  _217
REMARK   89  A    between atoms: _216  and  _219
REMARK   90  A    between atoms: _219  and  _220
REMARK   91  A    between atoms: _226  and  _228
REMARK   92  A    between atoms: _228  and  _229
REMARK   93  A    between atoms: _228  and  _231
REMARK   94  A    between atoms: _231  and  _232
REMARK   95  A    between atoms: _237  and  _239
REMARK   96  A    between atoms: _239  and  _240
REMARK   97  A    between atoms: _239  and  _242
REMARK   98  A    between atoms: _242  and  _243
REMARK   99  A    between atoms: _253  and  _255
REMARK  100  A    between atoms: _255  and  _256
REMARK  101  A    between atoms: _255  and  _258
REMARK  102  A    between atoms: _258  and  _259
REMARK  103  A    between atoms: _264  and  _265
REMARK  104  A    between atoms: _267  and  _269
REMARK  105  A    between atoms: _269  and  _270
REMARK  106  A    between atoms: _273  and  _275
REMARK  107  A    between atoms: _275  and  _276
REMARK  108  A    between atoms: _275  and  _278
REMARK  109  A    between atoms: _278  and  _279
REMARK  110  A    between atoms: _285  and  _287
REMARK  111  A    between atoms: _287  and  _288
REMARK  112  A    between atoms: _287  and  _290
REMARK  113  A    between atoms: _290  and  _291
REMARK  114  A    between atoms: _296  and  _298
REMARK  115  A    between atoms: _298  and  _299
REMARK  116  A    between atoms: _298  and  _301
REMARK  117  A    between atoms: _301  and  _302
REMARK  118  A    between atoms: _307  and  _309
REMARK  119  A    between atoms: _309  and  _310
REMARK  120  A    between atoms: _309  and  _312
REMARK  121  A    between atoms: _312  and  _313
REMARK  122  A    between atoms: _313  and  _314
REMARK  123  A    between atoms: _319  and  _321
REMARK  124  A    between atoms: _321  and  _322
REMARK  125  A    between atoms: _321  and  _324
REMARK  126  A    between atoms: _324  and  _325
REMARK  127  A    between atoms: _330  and  _331
REMARK  128  A    between atoms: _333  and  _335
REMARK  129  A    between atoms: _335  and  _336
REMARK  130  A    between atoms: _335  and  _338
REMARK  131  A    between atoms: _338  and  _339
REMARK  132  A    between atoms: _342  and  _344
REMARK  133  A    between atoms: _344  and  _345
REMARK  134  A    between atoms: _348  and  _350
REMARK  135  A    between atoms: _350  and  _351
REMARK  136  A    between atoms: _350  and  _353
REMARK  137  A    between atoms: _353  and  _354
REMARK  138  A    between atoms: _356  and  _358
REMARK  139  A    between atoms: _358  and  _359
REMARK  140  A    between atoms: _358  and  _361
REMARK  141  A    between atoms: _361  and  _362
REMARK  142  A    between atoms: _367  and  _368
REMARK  143  A    between atoms: _370  and  _372
REMARK  144  A    between atoms: _372  and  _373
REMARK  145  A    between atoms: _372  and  _375
REMARK  146  A    between atoms: _375  and  _376
REMARK  147  A    between atoms: _376  and  _377
REMARK  148  A    between atoms: _379  and  _381
REMARK  149  A    between atoms: _381  and  _382
REMARK  150  A    between atoms: _381  and  _384
REMARK  151  A    between atoms: _384  and  _385
REMARK  152  A    between atoms: _385  and  _386
REMARK  153  A    between atoms: _386  and  _387
REMARK  154  A    between atoms: _387  and  _388
REMARK  155  A    between atoms: _392  and  _394
REMARK  156  A    between atoms: _394  and  _395
REMARK  157  A    between atoms: _394  and  _397
REMARK  158  A    between atoms: _397  and  _398
REMARK  159  A    between atoms: _400  and  _402
REMARK  160  A    between atoms: _402  and  _403
REMARK  161  A    between atoms: _402  and  _405
REMARK  162  A    between atoms: _405  and  _406
REMARK  163  A    between atoms: _411  and  _412
REMARK  164  A    between atoms: _414  and  _416
REMARK  165  A    between atoms: _416  and  _417
REMARK  166  A    between atoms: _416  and  _419
REMARK  167  A    between atoms: _419  and  _420
REMARK  168  A    between atoms: _422  and  _424
REMARK  169  A    between atoms: _424  and  _425
REMARK  170  A    between atoms: _428  and  _430
REMARK  171  A    between atoms: _430  and  _431
REMARK  172  A    between atoms: _430  and  _433
REMARK  173  A    between atoms: _433  and  _434
REMARK  174  A    between atoms: _437  and  _439
REMARK  175  A    between atoms: _439  and  _440
REMARK  176  A    between atoms: _439  and  _442
REMARK  177  A    between atoms: _442  and  _443
REMARK  178  A    between atoms: _453  and  _455
REMARK  179  A    between atoms: _455  and  _456
REMARK  180  A    between atoms: _455  and  _458
REMARK  181  A    between atoms: _458  and  _459
REMARK  182  A    between atoms: _459  and  _460
REMARK  183  A    between atoms: _465  and  _467
REMARK  184  A    between atoms: _467  and  _468
REMARK  185  A    between atoms: _467  and  _470
REMARK  186  A    between atoms: _473  and  _475
REMARK  187  A    between atoms: _475  and  _476
REMARK  188  A    between atoms: _475  and  _478
REMARK  189  A    between atoms: _478  and  _479
REMARK  190  A    between atoms: _482  and  _484
REMARK  191  A    between atoms: _484  and  _485
REMARK  192  A    between atoms: _488  and  _490
REMARK  193  A    between atoms: _490  and  _491
REMARK  194  A    between atoms: _490  and  _493
REMARK  195  A    between atoms: _496  and  _498
REMARK  196  A    between atoms: _498  and  _499
REMARK  197  A    between atoms: _498  and  _501
REMARK  198  A    between atoms: _501  and  _502
REMARK  199  A    between atoms: _508  and  _510
REMARK  200  A    between atoms: _510  and  _511
REMARK  201  A    between atoms: _510  and  _513
REMARK  202  A    between atoms: _513  and  _514
REMARK  203  A    between atoms: _516  and  _518
REMARK  204  A    between atoms: _518  and  _519
REMARK  205  A    between atoms: _518  and  _521
REMARK  206  A    between atoms: _521  and  _522
REMARK  207  A    between atoms: _527  and  _529
REMARK  208  A    between atoms: _529  and  _530
REMARK  209  A    between atoms: _529  and  _532
REMARK  210  A    between atoms: _532  and  _533
REMARK  211  A    between atoms: _543  and  _545
REMARK  212  A    between atoms: _545  and  _546
REMARK  213  A    between atoms: _545  and  _548
REMARK  214  A    between atoms: _548  and  _549
REMARK  215  A    between atoms: _552  and  _554
REMARK  216  A    between atoms: _554  and  _555
REMARK  217  A    between atoms: _554  and  _557
REMARK  218  A    between atoms: _557  and  _558
REMARK  219  A    between atoms: _563  and  _564
REMARK  220  A    between atoms: _566  and  _568
REMARK  221  A    between atoms: _568  and  _569
REMARK  222  A    between atoms: _568  and  _571
REMARK  223  A    between atoms: _571  and  _572
REMARK  224  A    between atoms: _575  and  _577
REMARK  225  A    between atoms: _577  and  _578
REMARK  226  A    between atoms: _577  and  _580
REMARK  227  A    between atoms: _580  and  _581
REMARK  228  A    between atoms: _581  and  _582
REMARK  229  A    between atoms: _585  and  _587
REMARK  230  A    between atoms: _587  and  _588
REMARK  231  A    between atoms: _587  and  _590
REMARK  232  A    between atoms: _590  and  _591
REMARK  233  A    between atoms: _596  and  _598
REMARK  234  A    between atoms: _598  and  _599
REMARK  235  A    between atoms: _601  and  _603
REMARK  236  A    between atoms: _603  and  _604
REMARK  237  A    between atoms: _603  and  _606
REMARK  238  A    between atoms: _606  and  _607
REMARK  239  A    between atoms: _607  and  _608
REMARK  240  A    between atoms: _610  and  _612
REMARK  241  A    between atoms: _612  and  _613
REMARK  242  A    between atoms: _612  and  _615
REMARK  243  A    between atoms: _615  and  _616
REMARK  244  A    between atoms: _619  and  _621
REMARK  245  A    between atoms: _621  and  _622
REMARK  246  A    between atoms: _621  and  _624
REMARK  247  A    between atoms: _624  and  _625
REMARK  248  A    between atoms: _635  and  _637
REMARK  249  A    between atoms: _637  and  _638
REMARK  250  A    between atoms: _637  and  _640
REMARK  251  A    between atoms: _640  and  _641
REMARK  252  A    between atoms: _643  and  _645
REMARK  253  A    between atoms: _645  and  _646
REMARK  254  A    between atoms: _645  and  _648
REMARK  255  A    between atoms: _648  and  _649
REMARK  256  A    between atoms: _654  and  _656
REMARK  257  A    between atoms: _656  and  _657
REMARK  258  A    between atoms: _656  and  _659
REMARK  259  A    between atoms: _659  and  _660
REMARK  260  A    between atoms: _666  and  _668
REMARK  261  A    between atoms: _668  and  _669
REMARK  262  A    between atoms: _668  and  _671
REMARK  263  A    between atoms: _671  and  _672
REMARK  264  A    between atoms: _672  and  _673
REMARK  265  A    between atoms: _676  and  _678
REMARK  266  A    between atoms: _678  and  _679
REMARK  267  A    between atoms: _678  and  _681
REMARK  268  A    between atoms: _681  and  _682
REMARK  269  A    between atoms: _692  and  _694
REMARK  270  A    between atoms: _694  and  _695
REMARK  271  A    between atoms: _694  and  _697
REMARK  272  A    between atoms: _697  and  _698
REMARK  273  A    between atoms: _701  and  _703
REMARK  274  A    between atoms: _703  and  _704
REMARK  275  A    between atoms: _703  and  _706
REMARK  276  A    between atoms: _706  and  _707
REMARK  277  A    between atoms: _709  and  _711
REMARK  278  A    between atoms: _711  and  _712
REMARK  279  A    between atoms: _711  and  _714
REMARK  280  A    between atoms: _714  and  _715
REMARK  281  A    between atoms: _717  and  _719
REMARK  282  A    between atoms: _719  and  _720
REMARK  283  A    between atoms: _719  and  _722
REMARK  284  A    between atoms: _722  and  _723
REMARK                            x       y       z     vdW  Elec       q    Type
REMARK                         _______ _______ _______ _____ _____    ______ ____
ROOT
ATOM      1  O   HOH     1     -11.437  -0.626  52.356  0.00  0.00    +0.000 OA
ENDROOT
TORSDOF 0
REMARK  Name = ../refined-set-2016/4qlk/4qlk_pocket.pdb
REMARK  284 active torsions:
REMARK  status: ('A' for Active; 'I' for Inactive)
REMARK    1  A    between atoms: _1  and  _3
REMARK    2  A    between atoms: _3  and  _4
REMARK    3  A    between atoms: _3  and  _6
REMARK    4  A    between atoms: _9  and  _11
REMARK    5  A    between atoms: _11  and  _12
REMARK    6  A    between atoms: _11  and  _14
REMARK    7  A    between atoms: _14  and  _15
REMARK    8  A    between atoms: _18  and  _20
REMARK    9  A    between atoms: _20  and  _21
REMARK   10  A    between atoms: _20  and  _23
REMARK   11  A    between atoms: _23  and  _24
REMARK   12  A    between atoms: _26  and  _28
REMARK   13  A    between atoms: _28  and  _29
REMARK   14  A    between atoms: _28  and  _31
REMARK   15  A    between atoms: _31  and  _32
REMARK   16  A    between atoms: _32  and  _33
REMARK   17  A    between atoms: _38  and  _40
REMARK   18  A    between atoms: _40  and  _41
REMARK   19  A    between atoms: _40  and  _43
REMARK   20  A    between atoms: _43  and  _44
REMARK   21  A    between atoms: _44  and  _45
REMARK   22  A    between atoms: _45  and  _46
REMARK   23  A    between atoms: _55  and  _57
REMARK   24  A    between atoms: _57  and  _58
REMARK   25  A    between atoms: _57  and  _60
REMARK   26  A    between atoms: _60  and  _61
REMARK   27  A    between atoms: _66  and  _68
REMARK   28  A    between atoms: _68  and  _69
REMARK   29  A    between atoms: _68  and  _71
REMARK   30  A    between atoms: _71  and  _72
REMARK   31  A    between atoms: _77  and  _78
REMARK   32  A    between atoms: _80  and  _82
REMARK   33  A    between atoms: _82  and  _83
REMARK   34  A    between atoms: _82  and  _85
REMARK   35  A    between atoms: _85  and  _86
REMARK   36  A    between atoms: _91  and  _93
REMARK   37  A    between atoms: _93  and  _94
REMARK   38  A    between atoms: _93  and  _96
REMARK   39  A    between atoms: _96  and  _97
REMARK   40  A    between atoms: _97  and  _98
REMARK   41  A    between atoms: _103  and  _105
REMARK   42  A    between atoms: _105  and  _106
REMARK   43  A    between atoms: _105  and  _108
REMARK   44  A    between atoms: _108  and  _109
REMARK   45  A    between atoms: _109  and  _110
REMARK   46  A    between atoms: _110  and  _111
REMARK   47  A    between atoms: _120  and  _122
REMARK   48  A    between atoms: _122  and  _123
REMARK   49  A    between atoms: _122  and  _125
REMARK   50  A    between atoms: _125  and  _126
REMARK   51  A    between atoms: _129  and  _131
REMARK   52  A    between atoms: _131  and  _132
REMARK   53  A    between atoms: _131  and  _134
REMARK   54  A    between atoms: _134  and  _135
REMARK   55  A    between atoms: _138  and  _140
REMARK   56  A    between atoms: _140  and  _141
REMARK   57  A    between atoms: _140  and  _143
REMARK   58  A    between atoms: _143  and  _144
REMARK   59  A    between atoms: _147  and  _149
REMARK   60  A    between atoms: _149  and  _150
REMARK   61  A    between atoms: _149  and  _152
REMARK   62  A    between atoms: _152  and  _153
REMARK   63  A    between atoms: _156  and  _158
REMARK   64  A    between atoms: _158  and  _159
REMARK   65  A    between atoms: _158  and  _161
REMARK   66  A    between atoms: _161  and  _162
REMARK   67  A    between atoms: _162  and  _163
REMARK   68  A    between atoms: _168  and  _170
REMARK   69  A    between atoms: _170  and  _171
REMARK   70  A    between atoms: _170  and  _173
REMARK   71  A    between atoms: _173  and  _174
REMARK   72  A    between atoms: _177  and  _179
REMARK   73  A    between atoms: _179  and  _180
REMARK   74  A    between atoms: _179  and  _182
REMARK   75  A    between atoms: _182  and  _183
REMARK   76  A    between atoms: _188  and  _190
REMARK   77  A    between atoms: _190  and  _191
REMARK   78  A    between atoms: _190  and  _193
REMARK   79  A    between atoms: _196  and  _198
REMARK   80  A    between atoms: _198  and  _199
REMARK   81  A    between atoms: _198  and  _201
REMARK   82  A    between atoms: _201  and  _202
REMARK   83  A    between atoms: _205  and  _207
REMARK   84  A    between atoms: _207  and  _208
REMARK   85  A    between atoms: _207  and  _210
REMARK   86  A    between atoms: _210  and  _211
REMARK   87  A    between atoms: _214  and  _216
REMARK   88  A    between atoms: _216  and  _217
REMARK   89  A    between atoms: _216  and  _219
REMARK   90  A    between atoms: _219  and  _220
REMARK   91  A    between atoms: _226  and  _228
REMARK   92  A    between atoms: _228  and  _229
REMARK   93  A    between atoms: _228  and  _231
REMARK   94  A    between atoms: _231  and  _232
REMARK   95  A    between atoms: _237  and  _239
REMARK   96  A    between atoms: _239  and  _240
REMARK   97  A    between atoms: _239  and  _242
REMARK   98  A    between atoms: _242  and  _243
REMARK   99  A    between atoms: _253  and  _255
REMARK  100  A    between atoms: _255  and  _256
REMARK  101  A    between atoms: _255  and  _258
REMARK  102  A    between atoms: _258  and  _259
REMARK  103  A    between atoms: _264  and  _265
REMARK  104  A    between atoms: _267  and  _269
REMARK  105  A    between atoms: _269  and  _270
REMARK  106  A    between atoms: _273  and  _275
REMARK  107  A    between atoms: _275  and  _276
REMARK  108  A    between atoms: _275  and  _278
REMARK  109  A    between atoms: _278  and  _279
REMARK  110  A    between atoms: _285  and  _287
REMARK  111  A    between atoms: _287  and  _288
REMARK  112  A    between atoms: _287  and  _290
REMARK  113  A    between atoms: _290  and  _291
REMARK  114  A    between atoms: _296  and  _298
REMARK  115  A    between atoms: _298  and  _299
REMARK  116  A    between atoms: _298  and  _301
REMARK  117  A    between atoms: _301  and  _302
REMARK  118  A    between atoms: _307  and  _309
REMARK  119  A    between atoms: _309  and  _310
REMARK  120  A    between atoms: _309  and  _312
REMARK  121  A    between atoms: _312  and  _313
REMARK  122  A    between atoms: _313  and  _314
REMARK  123  A    between atoms: _319  and  _321
REMARK  124  A    between atoms: _321  and  _322
REMARK  125  A    between atoms: _321  and  _324
REMARK  126  A    between atoms: _324  and  _325
REMARK  127  A    between atoms: _330  and  _331
REMARK  128  A    between atoms: _333  and  _335
REMARK  129  A    between atoms: _335  and  _336
REMARK  130  A    between atoms: _335  and  _338
REMARK  131  A    between atoms: _338  and  _339
REMARK  132  A    between atoms: _342  and  _344
REMARK  133  A    between atoms: _344  and  _345
REMARK  134  A    between atoms: _348  and  _350
REMARK  135  A    between atoms: _350  and  _351
REMARK  136  A    between atoms: _350  and  _353
REMARK  137  A    between atoms: _353  and  _354
REMARK  138  A    between atoms: _356  and  _358
REMARK  139  A    between atoms: _358  and  _359
REMARK  140  A    between atoms: _358  and  _361
REMARK  141  A    between atoms: _361  and  _362
REMARK  142  A    between atoms: _367  and  _368
REMARK  143  A    between atoms: _370  and  _372
REMARK  144  A    between atoms: _372  and  _373
REMARK  145  A    between atoms: _372  and  _375
REMARK  146  A    between atoms: _375  and  _376
REMARK  147  A    between atoms: _376  and  _377
REMARK  148  A    between atoms: _379  and  _381
REMARK  149  A    between atoms: _381  and  _382
REMARK  150  A    between atoms: _381  and  _384
REMARK  151  A    between atoms: _384  and  _385
REMARK  152  A    between atoms: _385  and  _386
REMARK  153  A    between atoms: _386  and  _387
REMARK  154  A    between atoms: _387  and  _388
REMARK  155  A    between atoms: _392  and  _394
REMARK  156  A    between atoms: _394  and  _395
REMARK  157  A    between atoms: _394  and  _397
REMARK  158  A    between atoms: _397  and  _398
REMARK  159  A    between atoms: _400  and  _402
REMARK  160  A    between atoms: _402  and  _403
REMARK  161  A    between atoms: _402  and  _405
REMARK  162  A    between atoms: _405  and  _406
REMARK  163  A    between atoms: _411  and  _412
REMARK  164  A    between atoms: _414  and  _416
REMARK  165  A    between atoms: _416  and  _417
REMARK  166  A    between atoms: _416  and  _419
REMARK  167  A    between atoms: _419  and  _420
REMARK  168  A    between atoms: _422  and  _424
REMARK  169  A    between atoms: _424  and  _425
REMARK  170  A    between atoms: _428  and  _430
REMARK  171  A    between atoms: _430  and  _431
REMARK  172  A    between atoms: _430  and  _433
REMARK  173  A    between atoms: _433  and  _434
REMARK  174  A    between atoms: _437  and  _439
REMARK  175  A    between atoms: _439  and  _440
REMARK  176  A    between atoms: _439  and  _442
REMARK  177  A    between atoms: _442  and  _443
REMARK  178  A    between atoms: _453  and  _455
REMARK  179  A    between atoms: _455  and  _456
REMARK  180  A    between atoms: _455  and  _458
REMARK  181  A    between atoms: _458  and  _459
REMARK  182  A    between atoms: _459  and  _460
REMARK  183  A    between atoms: _465  and  _467
REMARK  184  A    between atoms: _467  and  _468
REMARK  185  A    between atoms: _467  and  _470
REMARK  186  A    between atoms: _473  and  _475
REMARK  187  A    between atoms: _475  and  _476
REMARK  188  A    between atoms: _475  and  _478
REMARK  189  A    between atoms: _478  and  _479
REMARK  190  A    between atoms: _482  and  _484
REMARK  191  A    between atoms: _484  and  _485
REMARK  192  A    between atoms: _488  and  _490
REMARK  193  A    between atoms: _490  and  _491
REMARK  194  A    between atoms: _490  and  _493
REMARK  195  A    between atoms: _496  and  _498
REMARK  196  A    between atoms: _498  and  _499
REMARK  197  A    between atoms: _498  and  _501
REMARK  198  A    between atoms: _501  and  _502
REMARK  199  A    between atoms: _508  and  _510
REMARK  200  A    between atoms: _510  and  _511
REMARK  201  A    between atoms: _510  and  _513
REMARK  202  A    between atoms: _513  and  _514
REMARK  203  A    between atoms: _516  and  _518
REMARK  204  A    between atoms: _518  and  _519
REMARK  205  A    between atoms: _518  and  _521
REMARK  206  A    between atoms: _521  and  _522
REMARK  207  A    between atoms: _527  and  _529
REMARK  208  A    between atoms: _529  and  _530
REMARK  209  A    between atoms: _529  and  _532
REMARK  210  A    between atoms: _532  and  _533
REMARK  211  A    between atoms: _543  and  _545
REMARK  212  A    between atoms: _545  and  _546
REMARK  213  A    between atoms: _545  and  _548
REMARK  214  A    between atoms: _548  and  _549
REMARK  215  A    between atoms: _552  and  _554
REMARK  216  A    between atoms: _554  and  _555
REMARK  217  A    between atoms: _554  and  _557
REMARK  218  A    between atoms: _557  and  _558
REMARK  219  A    between atoms: _563  and  _564
REMARK  220  A    between atoms: _566  and  _568
REMARK  221  A    between atoms: _568  and  _569
REMARK  222  A    between atoms: _568  and  _571
REMARK  223  A    between atoms: _571  and  _572
REMARK  224  A    between atoms: _575  and  _577
REMARK  225  A    between atoms: _577  and  _578
REMARK  226  A    between atoms: _577  and  _580
REMARK  227  A    between atoms: _580  and  _581
REMARK  228  A    between atoms: _581  and  _582
REMARK  229  A    between atoms: _585  and  _587
REMARK  230  A    between atoms: _587  and  _588
REMARK  231  A    between atoms: _587  and  _590
REMARK  232  A    between atoms: _590  and  _591
REMARK  233  A    between atoms: _596  and  _598
REMARK  234  A    between atoms: _598  and  _599
REMARK  235  A    between atoms: _601  and  _603
REMARK  236  A    between atoms: _603  and  _604
REMARK  237  A    between atoms: _603  and  _606
REMARK  238  A    between atoms: _606  and  _607
REMARK  239  A    between atoms: _607  and  _608
REMARK  240  A    between atoms: _610  and  _612
REMARK  241  A    between atoms: _612  and  _613
REMARK  242  A    between atoms: _612  and  _615
REMARK  243  A    between atoms: _615  and  _616
REMARK  244  A    between atoms: _619  and  _621
REMARK  245  A    between atoms: _621  and  _622
REMARK  246  A    between atoms: _621  and  _624
REMARK  247  A    between atoms: _624  and  _625
REMARK  248  A    between atoms: _635  and  _637
REMARK  249  A    between atoms: _637  and  _638
REMARK  250  A    between atoms: _637  and  _640
REMARK  251  A    between atoms: _640  and  _641
REMARK  252  A    between atoms: _643  and  _645
REMARK  253  A    between atoms: _645  and  _646
REMARK  254  A    between atoms: _645  and  _648
REMARK  255  A    between atoms: _648  and  _649
REMARK  256  A    between atoms: _654  and  _656
REMARK  257  A    between atoms: _656  and  _657
REMARK  258  A    between atoms: _656  and  _659
REMARK  259  A    between atoms: _659  and  _660
REMARK  260  A    between atoms: _666  and  _668
REMARK  261  A    between atoms: _668  and  _669
REMARK  262  A    between atoms: _668  and  _671
REMARK  263  A    between atoms: _671  and  _672
REMARK  264  A    between atoms: _672  and  _673
REMARK  265  A    between atoms: _676  and  _678
REMARK  266  A    between atoms: _678  and  _679
REMARK  267  A    between atoms: _678  and  _681
REMARK  268  A    between atoms: _681  and  _682
REMARK  269  A    between atoms: _692  and  _694
REMARK  270  A    between atoms: _694  and  _695
REMARK  271  A    between atoms: _694  and  _697
REMARK  272  A    between atoms: _697  and  _698
REMARK  273  A    between atoms: _701  and  _703
REMARK  274  A    between atoms: _703  and  _704
REMARK  275  A    between atoms: _703  and  _706
REMARK  276  A    between atoms: _706  and  _707
REMARK  277  A    between atoms: _709  and  _711
REMARK  278  A    between atoms: _711  and  _712
REMARK  279  A    between atoms: _711  and  _714
REMARK  280  A    between atoms: _714  and  _715
REMARK  281  A    between atoms: _717  and  _719
REMARK  282  A    between atoms: _719  and  _720
REMARK  283  A    between atoms: _719  and  _722
REMARK  284  A    between atoms: _722  and  _723
REMARK                            x       y       z     vdW  Elec       q    Type
REMARK                         _______ _______ _______ _____ _____    ______ ____
ROOT
ATOM      1  O   HOH     1      -3.761   2.683  43.791  0.00  0.00    +0.000 OA
ENDROOT
TORSDOF 0
REMARK  Name = ../refined-set-2016/4qlk/4qlk_pocket.pdb
REMARK  284 active torsions:
REMARK  status: ('A' for Active; 'I' for Inactive)
REMARK    1  A    between atoms: _1  and  _3
REMARK    2  A    between atoms: _3  and  _4
REMARK    3  A    between atoms: _3  and  _6
REMARK    4  A    between atoms: _9  and  _11
REMARK    5  A    between atoms: _11  and  _12
REMARK    6  A    between atoms: _11  and  _14
REMARK    7  A    between atoms: _14  and  _15
REMARK    8  A    between atoms: _18  and  _20
REMARK    9  A    between atoms: _20  and  _21
REMARK   10  A    between atoms: _20  and  _23
REMARK   11  A    between atoms: _23  and  _24
REMARK   12  A    between atoms: _26  and  _28
REMARK   13  A    between atoms: _28  and  _29
REMARK   14  A    between atoms: _28  and  _31
REMARK   15  A    between atoms: _31  and  _32
REMARK   16  A    between atoms: _32  and  _33
REMARK   17  A    between atoms: _38  and  _40
REMARK   18  A    between atoms: _40  and  _41
REMARK   19  A    between atoms: _40  and  _43
REMARK   20  A    between atoms: _43  and  _44
REMARK   21  A    between atoms: _44  and  _45
REMARK   22  A    between atoms: _45  and  _46
REMARK   23  A    between atoms: _55  and  _57
REMARK   24  A    between atoms: _57  and  _58
REMARK   25  A    between atoms: _57  and  _60
REMARK   26  A    between atoms: _60  and  _61
REMARK   27  A    between atoms: _66  and  _68
REMARK   28  A    between atoms: _68  and  _69
REMARK   29  A    between atoms: _68  and  _71
REMARK   30  A    between atoms: _71  and  _72
REMARK   31  A    between atoms: _77  and  _78
REMARK   32  A    between atoms: _80  and  _82
REMARK   33  A    between atoms: _82  and  _83
REMARK   34  A    between atoms: _82  and  _85
REMARK   35  A    between atoms: _85  and  _86
REMARK   36  A    between atoms: _91  and  _93
REMARK   37  A    between atoms: _93  and  _94
REMARK   38  A    between atoms: _93  and  _96
REMARK   39  A    between atoms: _96  and  _97
REMARK   40  A    between atoms: _97  and  _98
REMARK   41  A    between atoms: _103  and  _105
REMARK   42  A    between atoms: _105  and  _106
REMARK   43  A    between atoms: _105  and  _108
REMARK   44  A    between atoms: _108  and  _109
REMARK   45  A    between atoms: _109  and  _110
REMARK   46  A    between atoms: _110  and  _111
REMARK   47  A    between atoms: _120  and  _122
REMARK   48  A    between atoms: _122  and  _123
REMARK   49  A    between atoms: _122  and  _125
REMARK   50  A    between atoms: _125  and  _126
REMARK   51  A    between atoms: _129  and  _131
REMARK   52  A    between atoms: _131  and  _132
REMARK   53  A    between atoms: _131  and  _134
REMARK   54  A    between atoms: _134  and  _135
REMARK   55  A    between atoms: _138  and  _140
REMARK   56  A    between atoms: _140  and  _141
REMARK   57  A    between atoms: _140  and  _143
REMARK   58  A    between atoms: _143  and  _144
REMARK   59  A    between atoms: _147  and  _149
REMARK   60  A    between atoms: _149  and  _150
REMARK   61  A    between atoms: _149  and  _152
REMARK   62  A    between atoms: _152  and  _153
REMARK   63  A    between atoms: _156  and  _158
REMARK   64  A    between atoms: _158  and  _159
REMARK   65  A    between atoms: _158  and  _161
REMARK   66  A    between atoms: _161  and  _162
REMARK   67  A    between atoms: _162  and  _163
REMARK   68  A    between atoms: _168  and  _170
REMARK   69  A    between atoms: _170  and  _171
REMARK   70  A    between atoms: _170  and  _173
REMARK   71  A    between atoms: _173  and  _174
REMARK   72  A    between atoms: _177  and  _179
REMARK   73  A    between atoms: _179  and  _180
REMARK   74  A    between atoms: _179  and  _182
REMARK   75  A    between atoms: _182  and  _183
REMARK   76  A    between atoms: _188  and  _190
REMARK   77  A    between atoms: _190  and  _191
REMARK   78  A    between atoms: _190  and  _193
REMARK   79  A    between atoms: _196  and  _198
REMARK   80  A    between atoms: _198  and  _199
REMARK   81  A    between atoms: _198  and  _201
REMARK   82  A    between atoms: _201  and  _202
REMARK   83  A    between atoms: _205  and  _207
REMARK   84  A    between atoms: _207  and  _208
REMARK   85  A    between atoms: _207  and  _210
REMARK   86  A    between atoms: _210  and  _211
REMARK   87  A    between atoms: _214  and  _216
REMARK   88  A    between atoms: _216  and  _217
REMARK   89  A    between atoms: _216  and  _219
REMARK   90  A    between atoms: _219  and  _220
REMARK   91  A    between atoms: _226  and  _228
REMARK   92  A    between atoms: _228  and  _229
REMARK   93  A    between atoms: _228  and  _231
REMARK   94  A    between atoms: _231  and  _232
REMARK   95  A    between atoms: _237  and  _239
REMARK   96  A    between atoms: _239  and  _240
REMARK   97  A    between atoms: _239  and  _242
REMARK   98  A    between atoms: _242  and  _243
REMARK   99  A    between atoms: _253  and  _255
REMARK  100  A    between atoms: _255  and  _256
REMARK  101  A    between atoms: _255  and  _258
REMARK  102  A    between atoms: _258  and  _259
REMARK  103  A    between atoms: _264  and  _265
REMARK  104  A    between atoms: _267  and  _269
REMARK  105  A    between atoms: _269  and  _270
REMARK  106  A    between atoms: _273  and  _275
REMARK  107  A    between atoms: _275  and  _276
REMARK  108  A    between atoms: _275  and  _278
REMARK  109  A    between atoms: _278  and  _279
REMARK  110  A    between atoms: _285  and  _287
REMARK  111  A    between atoms: _287  and  _288
REMARK  112  A    between atoms: _287  and  _290
REMARK  113  A    between atoms: _290  and  _291
REMARK  114  A    between atoms: _296  and  _298
REMARK  115  A    between atoms: _298  and  _299
REMARK  116  A    between atoms: _298  and  _301
REMARK  117  A    between atoms: _301  and  _302
REMARK  118  A    between atoms: _307  and  _309
REMARK  119  A    between atoms: _309  and  _310
REMARK  120  A    between atoms: _309  and  _312
REMARK  121  A    between atoms: _312  and  _313
REMARK  122  A    between atoms: _313  and  _314
REMARK  123  A    between atoms: _319  and  _321
REMARK  124  A    between atoms: _321  and  _322
REMARK  125  A    between atoms: _321  and  _324
REMARK  126  A    between atoms: _324  and  _325
REMARK  127  A    between atoms: _330  and  _331
REMARK  128  A    between atoms: _333  and  _335
REMARK  129  A    between atoms: _335  and  _336
REMARK  130  A    between atoms: _335  and  _338
REMARK  131  A    between atoms: _338  and  _339
REMARK  132  A    between atoms: _342  and  _344
REMARK  133  A    between atoms: _344  and  _345
REMARK  134  A    between atoms: _348  and  _350
REMARK  135  A    between atoms: _350  and  _351
REMARK  136  A    between atoms: _350  and  _353
REMARK  137  A    between atoms: _353  and  _354
REMARK  138  A    between atoms: _356  and  _358
REMARK  139  A    between atoms: _358  and  _359
REMARK  140  A    between atoms: _358  and  _361
REMARK  141  A    between atoms: _361  and  _362
REMARK  142  A    between atoms: _367  and  _368
REMARK  143  A    between atoms: _370  and  _372
REMARK  144  A    between atoms: _372  and  _373
REMARK  145  A    between atoms: _372  and  _375
REMARK  146  A    between atoms: _375  and  _376
REMARK  147  A    between atoms: _376  and  _377
REMARK  148  A    between atoms: _379  and  _381
REMARK  149  A    between atoms: _381  and  _382
REMARK  150  A    between atoms: _381  and  _384
REMARK  151  A    between atoms: _384  and  _385
REMARK  152  A    between atoms: _385  and  _386
REMARK  153  A    between atoms: _386  and  _387
REMARK  154  A    between atoms: _387  and  _388
REMARK  155  A    between atoms: _392  and  _394
REMARK  156  A    between atoms: _394  and  _395
REMARK  157  A    between atoms: _394  and  _397
REMARK  158  A    between atoms: _397  and  _398
REMARK  159  A    between atoms: _400  and  _402
REMARK  160  A    between atoms: _402  and  _403
REMARK  161  A    between atoms: _402  and  _405
REMARK  162  A    between atoms: _405  and  _406
REMARK  163  A    between atoms: _411  and  _412
REMARK  164  A    between atoms: _414  and  _416
REMARK  165  A    between atoms: _416  and  _417
REMARK  166  A    between atoms: _416  and  _419
REMARK  167  A    between atoms: _419  and  _420
REMARK  168  A    between atoms: _422  and  _424
REMARK  169  A    between atoms: _424  and  _425
REMARK  170  A    between atoms: _428  and  _430
REMARK  171  A    between atoms: _430  and  _431
REMARK  172  A    between atoms: _430  and  _433
REMARK  173  A    between atoms: _433  and  _434
REMARK  174  A    between atoms: _437  and  _439
REMARK  175  A    between atoms: _439  and  _440
REMARK  176  A    between atoms: _439  and  _442
REMARK  177  A    between atoms: _442  and  _443
REMARK  178  A    between atoms: _453  and  _455
REMARK  179  A    between atoms: _455  and  _456
REMARK  180  A    between atoms: _455  and  _458
REMARK  181  A    between atoms: _458  and  _459
REMARK  182  A    between atoms: _459  and  _460
REMARK  183  A    between atoms: _465  and  _467
REMARK  184  A    between atoms: _467  and  _468
REMARK  185  A    between atoms: _467  and  _470
REMARK  186  A    between atoms: _473  and  _475
REMARK  187  A    between atoms: _475  and  _476
REMARK  188  A    between atoms: _475  and  _478
REMARK  189  A    between atoms: _478  and  _479
REMARK  190  A    between atoms: _482  and  _484
REMARK  191  A    between atoms: _484  and  _485
REMARK  192  A    between atoms: _488  and  _490
REMARK  193  A    between atoms: _490  and  _491
REMARK  194  A    between atoms: _490  and  _493
REMARK  195  A    between atoms: _496  and  _498
REMARK  196  A    between atoms: _498  and  _499
REMARK  197  A    between atoms: _498  and  _501
REMARK  198  A    between atoms: _501  and  _502
REMARK  199  A    between atoms: _508  and  _510
REMARK  200  A    between atoms: _510  and  _511
REMARK  201  A    between atoms: _510  and  _513
REMARK  202  A    between atoms: _513  and  _514
REMARK  203  A    between atoms: _516  and  _518
REMARK  204  A    between atoms: _518  and  _519
REMARK  205  A    between atoms: _518  and  _521
REMARK  206  A    between atoms: _521  and  _522
REMARK  207  A    between atoms: _527  and  _529
REMARK  208  A    between atoms: _529  and  _530
REMARK  209  A    between atoms: _529  and  _532
REMARK  210  A    between atoms: _532  and  _533
REMARK  211  A    between atoms: _543  and  _545
REMARK  212  A    between atoms: _545  and  _546
REMARK  213  A    between atoms: _545  and  _548
REMARK  214  A    between atoms: _548  and  _549
REMARK  215  A    between atoms: _552  and  _554
REMARK  216  A    between atoms: _554  and  _555
REMARK  217  A    between atoms: _554  and  _557
REMARK  218  A    between atoms: _557  and  _558
REMARK  219  A    between atoms: _563  and  _564
REMARK  220  A    between atoms: _566  and  _568
REMARK  221  A    between atoms: _568  and  _569
REMARK  222  A    between atoms: _568  and  _571
REMARK  223  A    between atoms: _571  and  _572
REMARK  224  A    between atoms: _575  and  _577
REMARK  225  A    between atoms: _577  and  _578
REMARK  226  A    between atoms: _577  and  _580
REMARK  227  A    between atoms: _580  and  _581
REMARK  228  A    between atoms: _581  and  _582
REMARK  229  A    between atoms: _585  and  _587
REMARK  230  A    between atoms: _587  and  _588
REMARK  231  A    between atoms: _587  and  _590
REMARK  232  A    between atoms: _590  and  _591
REMARK  233  A    between atoms: _596  and  _598
REMARK  234  A    between atoms: _598  and  _599
REMARK  235  A    between atoms: _601  and  _603
REMARK  236  A    between atoms: _603  and  _604
REMARK  237  A    between atoms: _603  and  _606
REMARK  238  A    between atoms: _606  and  _607
REMARK  239  A    between atoms: _607  and  _608
REMARK  240  A    between atoms: _610  and  _612
REMARK  241  A    between atoms: _612  and  _613
REMARK  242  A    between atoms: _612  and  _615
REMARK  243  A    between atoms: _615  and  _616
REMARK  244  A    between atoms: _619  and  _621
REMARK  245  A    between atoms: _621  and  _622
REMARK  246  A    between atoms: _621  and  _624
REMARK  247  A    between atoms: _624  and  _625
REMARK  248  A    between atoms: _635  and  _637
REMARK  249  A    between atoms: _637  and  _638
REMARK  250  A    between atoms: _637  and  _640
REMARK  251  A    between atoms: _640  and  _641
REMARK  252  A    between atoms: _643  and  _645
REMARK  253  A    between atoms: _645  and  _646
REMARK  254  A    between atoms: _645  and  _648
REMARK  255  A    between atoms: _648  and  _649
REMARK  256  A    between atoms: _654  and  _656
REMARK  257  A    between atoms: _656  and  _657
REMARK  258  A    between atoms: _656  and  _659
REMARK  259  A    between atoms: _659  and  _660
REMARK  260  A    between atoms: _666  and  _668
REMARK  261  A    between atoms: _668  and  _669
REMARK  262  A    between atoms: _668  and  _671
REMARK  263  A    between atoms: _671  and  _672
REMARK  264  A    between atoms: _672  and  _673
REMARK  265  A    between atoms: _676  and  _678
REMARK  266  A    between atoms: _678  and  _679
REMARK  267  A    between atoms: _678  and  _681
REMARK  268  A    between atoms: _681  and  _682
REMARK  269  A    between atoms: _692  and  _694
REMARK  270  A    between atoms: _694  and  _695
REMARK  271  A    between atoms: _694  and  _697
REMARK  272  A    between atoms: _697  and  _698
REMARK  273  A    between atoms: _701  and  _703
REMARK  274  A    between atoms: _703  and  _704
REMARK  275  A    between atoms: _703  and  _706
REMARK  276  A    between atoms: _706  and  _707
REMARK  277  A    between atoms: _709  and  _711
REMARK  278  A    between atoms: _711  and  _712
REMARK  279  A    between atoms: _711  and  _714
REMARK  280  A    between atoms: _714  and  _715
REMARK  281  A    between atoms: _717  and  _719
REMARK  282  A    between atoms: _719  and  _720
REMARK  283  A    between atoms: _719  and  _722
REMARK  284  A    between atoms: _722  and  _723
REMARK                            x       y       z     vdW  Elec       q    Type
REMARK                         _______ _______ _______ _____ _____    ______ ____
ROOT
ATOM      1  O   HOH     1      -7.134  -5.033  55.860  0.00  0.00    +0.000 OA
ENDROOT
TORSDOF 0
REMARK  Name = ../refined-set-2016/4qlk/4qlk_pocket.pdb
REMARK  284 active torsions:
REMARK  status: ('A' for Active; 'I' for Inactive)
REMARK    1  A    between atoms: _1  and  _3
REMARK    2  A    between atoms: _3  and  _4
REMARK    3  A    between atoms: _3  and  _6
REMARK    4  A    between atoms: _9  and  _11
REMARK    5  A    between atoms: _11  and  _12
REMARK    6  A    between atoms: _11  and  _14
REMARK    7  A    between atoms: _14  and  _15
REMARK    8  A    between atoms: _18  and  _20
REMARK    9  A    between atoms: _20  and  _21
REMARK   10  A    between atoms: _20  and  _23
REMARK   11  A    between atoms: _23  and  _24
REMARK   12  A    between atoms: _26  and  _28
REMARK   13  A    between atoms: _28  and  _29
REMARK   14  A    between atoms: _28  and  _31
REMARK   15  A    between atoms: _31  and  _32
REMARK   16  A    between atoms: _32  and  _33
REMARK   17  A    between atoms: _38  and  _40
REMARK   18  A    between atoms: _40  and  _41
REMARK   19  A    between atoms: _40  and  _43
REMARK   20  A    between atoms: _43  and  _44
REMARK   21  A    between atoms: _44  and  _45
REMARK   22  A    between atoms: _45  and  _46
REMARK   23  A    between atoms: _55  and  _57
REMARK   24  A    between atoms: _57  and  _58
REMARK   25  A    between atoms: _57  and  _60
REMARK   26  A    between atoms: _60  and  _61
REMARK   27  A    between atoms: _66  and  _68
REMARK   28  A    between atoms: _68  and  _69
REMARK   29  A    between atoms: _68  and  _71
REMARK   30  A    between atoms: _71  and  _72
REMARK   31  A    between atoms: _77  and  _78
REMARK   32  A    between atoms: _80  and  _82
REMARK   33  A    between atoms: _82  and  _83
REMARK   34  A    between atoms: _82  and  _85
REMARK   35  A    between atoms: _85  and  _86
REMARK   36  A    between atoms: _91  and  _93
REMARK   37  A    between atoms: _93  and  _94
REMARK   38  A    between atoms: _93  and  _96
REMARK   39  A    between atoms: _96  and  _97
REMARK   40  A    between atoms: _97  and  _98
REMARK   41  A    between atoms: _103  and  _105
REMARK   42  A    between atoms: _105  and  _106
REMARK   43  A    between atoms: _105  and  _108
REMARK   44  A    between atoms: _108  and  _109
REMARK   45  A    between atoms: _109  and  _110
REMARK   46  A    between atoms: _110  and  _111
REMARK   47  A    between atoms: _120  and  _122
REMARK   48  A    between atoms: _122  and  _123
REMARK   49  A    between atoms: _122  and  _125
REMARK   50  A    between atoms: _125  and  _126
REMARK   51  A    between atoms: _129  and  _131
REMARK   52  A    between atoms: _131  and  _132
REMARK   53  A    between atoms: _131  and  _134
REMARK   54  A    between atoms: _134  and  _135
REMARK   55  A    between atoms: _138  and  _140
REMARK   56  A    between atoms: _140  and  _141
REMARK   57  A    between atoms: _140  and  _143
REMARK   58  A    between atoms: _143  and  _144
REMARK   59  A    between atoms: _147  and  _149
REMARK   60  A    between atoms: _149  and  _150
REMARK   61  A    between atoms: _149  and  _152
REMARK   62  A    between atoms: _152  and  _153
REMARK   63  A    between atoms: _156  and  _158
REMARK   64  A    between atoms: _158  and  _159
REMARK   65  A    between atoms: _158  and  _161
REMARK   66  A    between atoms: _161  and  _162
REMARK   67  A    between atoms: _162  and  _163
REMARK   68  A    between atoms: _168  and  _170
REMARK   69  A    between atoms: _170  and  _171
REMARK   70  A    between atoms: _170  and  _173
REMARK   71  A    between atoms: _173  and  _174
REMARK   72  A    between atoms: _177  and  _179
REMARK   73  A    between atoms: _179  and  _180
REMARK   74  A    between atoms: _179  and  _182
REMARK   75  A    between atoms: _182  and  _183
REMARK   76  A    between atoms: _188  and  _190
REMARK   77  A    between atoms: _190  and  _191
REMARK   78  A    between atoms: _190  and  _193
REMARK   79  A    between atoms: _196  and  _198
REMARK   80  A    between atoms: _198  and  _199
REMARK   81  A    between atoms: _198  and  _201
REMARK   82  A    between atoms: _201  and  _202
REMARK   83  A    between atoms: _205  and  _207
REMARK   84  A    between atoms: _207  and  _208
REMARK   85  A    between atoms: _207  and  _210
REMARK   86  A    between atoms: _210  and  _211
REMARK   87  A    between atoms: _214  and  _216
REMARK   88  A    between atoms: _216  and  _217
REMARK   89  A    between atoms: _216  and  _219
REMARK   90  A    between atoms: _219  and  _220
REMARK   91  A    between atoms: _226  and  _228
REMARK   92  A    between atoms: _228  and  _229
REMARK   93  A    between atoms: _228  and  _231
REMARK   94  A    between atoms: _231  and  _232
REMARK   95  A    between atoms: _237  and  _239
REMARK   96  A    between atoms: _239  and  _240
REMARK   97  A    between atoms: _239  and  _242
REMARK   98  A    between atoms: _242  and  _243
REMARK   99  A    between atoms: _253  and  _255
REMARK  100  A    between atoms: _255  and  _256
REMARK  101  A    between atoms: _255  and  _258
REMARK  102  A    between atoms: _258  and  _259
REMARK  103  A    between atoms: _264  and  _265
REMARK  104  A    between atoms: _267  and  _269
REMARK  105  A    between atoms: _269  and  _270
REMARK  106  A    between atoms: _273  and  _275
REMARK  107  A    between atoms: _275  and  _276
REMARK  108  A    between atoms: _275  and  _278
REMARK  109  A    between atoms: _278  and  _279
REMARK  110  A    between atoms: _285  and  _287
REMARK  111  A    between atoms: _287  and  _288
REMARK  112  A    between atoms: _287  and  _290
REMARK  113  A    between atoms: _290  and  _291
REMARK  114  A    between atoms: _296  and  _298
REMARK  115  A    between atoms: _298  and  _299
REMARK  116  A    between atoms: _298  and  _301
REMARK  117  A    between atoms: _301  and  _302
REMARK  118  A    between atoms: _307  and  _309
REMARK  119  A    between atoms: _309  and  _310
REMARK  120  A    between atoms: _309  and  _312
REMARK  121  A    between atoms: _312  and  _313
REMARK  122  A    between atoms: _313  and  _314
REMARK  123  A    between atoms: _319  and  _321
REMARK  124  A    between atoms: _321  and  _322
REMARK  125  A    between atoms: _321  and  _324
REMARK  126  A    between atoms: _324  and  _325
REMARK  127  A    between atoms: _330  and  _331
REMARK  128  A    between atoms: _333  and  _335
REMARK  129  A    between atoms: _335  and  _336
REMARK  130  A    between atoms: _335  and  _338
REMARK  131  A    between atoms: _338  and  _339
REMARK  132  A    between atoms: _342  and  _344
REMARK  133  A    between atoms: _344  and  _345
REMARK  134  A    between atoms: _348  and  _350
REMARK  135  A    between atoms: _350  and  _351
REMARK  136  A    between atoms: _350  and  _353
REMARK  137  A    between atoms: _353  and  _354
REMARK  138  A    between atoms: _356  and  _358
REMARK  139  A    between atoms: _358  and  _359
REMARK  140  A    between atoms: _358  and  _361
REMARK  141  A    between atoms: _361  and  _362
REMARK  142  A    between atoms: _367  and  _368
REMARK  143  A    between atoms: _370  and  _372
REMARK  144  A    between atoms: _372  and  _373
REMARK  145  A    between atoms: _372  and  _375
REMARK  146  A    between atoms: _375  and  _376
REMARK  147  A    between atoms: _376  and  _377
REMARK  148  A    between atoms: _379  and  _381
REMARK  149  A    between atoms: _381  and  _382
REMARK  150  A    between atoms: _381  and  _384
REMARK  151  A    between atoms: _384  and  _385
REMARK  152  A    between atoms: _385  and  _386
REMARK  153  A    between atoms: _386  and  _387
REMARK  154  A    between atoms: _387  and  _388
REMARK  155  A    between atoms: _392  and  _394
REMARK  156  A    between atoms: _394  and  _395
REMARK  157  A    between atoms: _394  and  _397
REMARK  158  A    between atoms: _397  and  _398
REMARK  159  A    between atoms: _400  and  _402
REMARK  160  A    between atoms: _402  and  _403
REMARK  161  A    between atoms: _402  and  _405
REMARK  162  A    between atoms: _405  and  _406
REMARK  163  A    between atoms: _411  and  _412
REMARK  164  A    between atoms: _414  and  _416
REMARK  165  A    between atoms: _416  and  _417
REMARK  166  A    between atoms: _416  and  _419
REMARK  167  A    between atoms: _419  and  _420
REMARK  168  A    between atoms: _422  and  _424
REMARK  169  A    between atoms: _424  and  _425
REMARK  170  A    between atoms: _428  and  _430
REMARK  171  A    between atoms: _430  and  _431
REMARK  172  A    between atoms: _430  and  _433
REMARK  173  A    between atoms: _433  and  _434
REMARK  174  A    between atoms: _437  and  _439
REMARK  175  A    between atoms: _439  and  _440
REMARK  176  A    between atoms: _439  and  _442
REMARK  177  A    between atoms: _442  and  _443
REMARK  178  A    between atoms: _453  and  _455
REMARK  179  A    between atoms: _455  and  _456
REMARK  180  A    between atoms: _455  and  _458
REMARK  181  A    between atoms: _458  and  _459
REMARK  182  A    between atoms: _459  and  _460
REMARK  183  A    between atoms: _465  and  _467
REMARK  184  A    between atoms: _467  and  _468
REMARK  185  A    between atoms: _467  and  _470
REMARK  186  A    between atoms: _473  and  _475
REMARK  187  A    between atoms: _475  and  _476
REMARK  188  A    between atoms: _475  and  _478
REMARK  189  A    between atoms: _478  and  _479
REMARK  190  A    between atoms: _482  and  _484
REMARK  191  A    between atoms: _484  and  _485
REMARK  192  A    between atoms: _488  and  _490
REMARK  193  A    between atoms: _490  and  _491
REMARK  194  A    between atoms: _490  and  _493
REMARK  195  A    between atoms: _496  and  _498
REMARK  196  A    between atoms: _498  and  _499
REMARK  197  A    between atoms: _498  and  _501
REMARK  198  A    between atoms: _501  and  _502
REMARK  199  A    between atoms: _508  and  _510
REMARK  200  A    between atoms: _510  and  _511
REMARK  201  A    between atoms: _510  and  _513
REMARK  202  A    between atoms: _513  and  _514
REMARK  203  A    between atoms: _516  and  _518
REMARK  204  A    between atoms: _518  and  _519
REMARK  205  A    between atoms: _518  and  _521
REMARK  206  A    between atoms: _521  and  _522
REMARK  207  A    between atoms: _527  and  _529
REMARK  208  A    between atoms: _529  and  _530
REMARK  209  A    between atoms: _529  and  _532
REMARK  210  A    between atoms: _532  and  _533
REMARK  211  A    between atoms: _543  and  _545
REMARK  212  A    between atoms: _545  and  _546
REMARK  213  A    between atoms: _545  and  _548
REMARK  214  A    between atoms: _548  and  _549
REMARK  215  A    between atoms: _552  and  _554
REMARK  216  A    between atoms: _554  and  _555
REMARK  217  A    between atoms: _554  and  _557
REMARK  218  A    between atoms: _557  and  _558
REMARK  219  A    between atoms: _563  and  _564
REMARK  220  A    between atoms: _566  and  _568
REMARK  221  A    between atoms: _568  and  _569
REMARK  222  A    between atoms: _568  and  _571
REMARK  223  A    between atoms: _571  and  _572
REMARK  224  A    between atoms: _575  and  _577
REMARK  225  A    between atoms: _577  and  _578
REMARK  226  A    between atoms: _577  and  _580
REMARK  227  A    between atoms: _580  and  _581
REMARK  228  A    between atoms: _581  and  _582
REMARK  229  A    between atoms: _585  and  _587
REMARK  230  A    between atoms: _587  and  _588
REMARK  231  A    between atoms: _587  and  _590
REMARK  232  A    between atoms: _590  and  _591
REMARK  233  A    between atoms: _596  and  _598
REMARK  234  A    between atoms: _598  and  _599
REMARK  235  A    between atoms: _601  and  _603
REMARK  236  A    between atoms: _603  and  _604
REMARK  237  A    between atoms: _603  and  _606
REMARK  238  A    between atoms: _606  and  _607
REMARK  239  A    between atoms: _607  and  _608
REMARK  240  A    between atoms: _610  and  _612
REMARK  241  A    between atoms: _612  and  _613
REMARK  242  A    between atoms: _612  and  _615
REMARK  243  A    between atoms: _615  and  _616
REMARK  244  A    between atoms: _619  and  _621
REMARK  245  A    between atoms: _621  and  _622
REMARK  246  A    between atoms: _621  and  _624
REMARK  247  A    between atoms: _624  and  _625
REMARK  248  A    between atoms: _635  and  _637
REMARK  249  A    between atoms: _637  and  _638
REMARK  250  A    between atoms: _637  and  _640
REMARK  251  A    between atoms: _640  and  _641
REMARK  252  A    between atoms: _643  and  _645
REMARK  253  A    between atoms: _645  and  _646
REMARK  254  A    between atoms: _645  and  _648
REMARK  255  A    between atoms: _648  and  _649
REMARK  256  A    between atoms: _654  and  _656
REMARK  257  A    between atoms: _656  and  _657
REMARK  258  A    between atoms: _656  and  _659
REMARK  259  A    between atoms: _659  and  _660
REMARK  260  A    between atoms: _666  and  _668
REMARK  261  A    between atoms: _668  and  _669
REMARK  262  A    between atoms: _668  and  _671
REMARK  263  A    between atoms: _671  and  _672
REMARK  264  A    between atoms: _672  and  _673
REMARK  265  A    between atoms: _676  and  _678
REMARK  266  A    between atoms: _678  and  _679
REMARK  267  A    between atoms: _678  and  _681
REMARK  268  A    between atoms: _681  and  _682
REMARK  269  A    between atoms: _692  and  _694
REMARK  270  A    between atoms: _694  and  _695
REMARK  271  A    between atoms: _694  and  _697
REMARK  272  A    between atoms: _697  and  _698
REMARK  273  A    between atoms: _701  and  _703
REMARK  274  A    between atoms: _703  and  _704
REMARK  275  A    between atoms: _703  and  _706
REMARK  276  A    between atoms: _706  and  _707
REMARK  277  A    between atoms: _709  and  _711
REMARK  278  A    between atoms: _711  and  _712
REMARK  279  A    between atoms: _711  and  _714
REMARK  280  A    between atoms: _714  and  _715
REMARK  281  A    between atoms: _717  and  _719
REMARK  282  A    between atoms: _719  and  _720
REMARK  283  A    between atoms: _719  and  _722
REMARK  284  A    between atoms: _722  and  _723
REMARK                            x       y       z     vdW  Elec       q    Type
REMARK                         _______ _______ _______ _____ _____    ______ ____
ROOT
ATOM      1  O   HOH     1      -5.770  -5.224  58.150  0.00  0.00    +0.000 OA
ENDROOT
TORSDOF 0
REMARK  Name = ../refined-set-2016/4qlk/4qlk_pocket.pdb
REMARK  284 active torsions:
REMARK  status: ('A' for Active; 'I' for Inactive)
REMARK    1  A    between atoms: _1  and  _3
REMARK    2  A    between atoms: _3  and  _4
REMARK    3  A    between atoms: _3  and  _6
REMARK    4  A    between atoms: _9  and  _11
REMARK    5  A    between atoms: _11  and  _12
REMARK    6  A    between atoms: _11  and  _14
REMARK    7  A    between atoms: _14  and  _15
REMARK    8  A    between atoms: _18  and  _20
REMARK    9  A    between atoms: _20  and  _21
REMARK   10  A    between atoms: _20  and  _23
REMARK   11  A    between atoms: _23  and  _24
REMARK   12  A    between atoms: _26  and  _28
REMARK   13  A    between atoms: _28  and  _29
REMARK   14  A    between atoms: _28  and  _31
REMARK   15  A    between atoms: _31  and  _32
REMARK   16  A    between atoms: _32  and  _33
REMARK   17  A    between atoms: _38  and  _40
REMARK   18  A    between atoms: _40  and  _41
REMARK   19  A    between atoms: _40  and  _43
REMARK   20  A    between atoms: _43  and  _44
REMARK   21  A    between atoms: _44  and  _45
REMARK   22  A    between atoms: _45  and  _46
REMARK   23  A    between atoms: _55  and  _57
REMARK   24  A    between atoms: _57  and  _58
REMARK   25  A    between atoms: _57  and  _60
REMARK   26  A    between atoms: _60  and  _61
REMARK   27  A    between atoms: _66  and  _68
REMARK   28  A    between atoms: _68  and  _69
REMARK   29  A    between atoms: _68  and  _71
REMARK   30  A    between atoms: _71  and  _72
REMARK   31  A    between atoms: _77  and  _78
REMARK   32  A    between atoms: _80  and  _82
REMARK   33  A    between atoms: _82  and  _83
REMARK   34  A    between atoms: _82  and  _85
REMARK   35  A    between atoms: _85  and  _86
REMARK   36  A    between atoms: _91  and  _93
REMARK   37  A    between atoms: _93  and  _94
REMARK   38  A    between atoms: _93  and  _96
REMARK   39  A    between atoms: _96  and  _97
REMARK   40  A    between atoms: _97  and  _98
REMARK   41  A    between atoms: _103  and  _105
REMARK   42  A    between atoms: _105  and  _106
REMARK   43  A    between atoms: _105  and  _108
REMARK   44  A    between atoms: _108  and  _109
REMARK   45  A    between atoms: _109  and  _110
REMARK   46  A    between atoms: _110  and  _111
REMARK   47  A    between atoms: _120  and  _122
REMARK   48  A    between atoms: _122  and  _123
REMARK   49  A    between atoms: _122  and  _125
REMARK   50  A    between atoms: _125  and  _126
REMARK   51  A    between atoms: _129  and  _131
REMARK   52  A    between atoms: _131  and  _132
REMARK   53  A    between atoms: _131  and  _134
REMARK   54  A    between atoms: _134  and  _135
REMARK   55  A    between atoms: _138  and  _140
REMARK   56  A    between atoms: _140  and  _141
REMARK   57  A    between atoms: _140  and  _143
REMARK   58  A    between atoms: _143  and  _144
REMARK   59  A    between atoms: _147  and  _149
REMARK   60  A    between atoms: _149  and  _150
REMARK   61  A    between atoms: _149  and  _152
REMARK   62  A    between atoms: _152  and  _153
REMARK   63  A    between atoms: _156  and  _158
REMARK   64  A    between atoms: _158  and  _159
REMARK   65  A    between atoms: _158  and  _161
REMARK   66  A    between atoms: _161  and  _162
REMARK   67  A    between atoms: _162  and  _163
REMARK   68  A    between atoms: _168  and  _170
REMARK   69  A    between atoms: _170  and  _171
REMARK   70  A    between atoms: _170  and  _173
REMARK   71  A    between atoms: _173  and  _174
REMARK   72  A    between atoms: _177  and  _179
REMARK   73  A    between atoms: _179  and  _180
REMARK   74  A    between atoms: _179  and  _182
REMARK   75  A    between atoms: _182  and  _183
REMARK   76  A    between atoms: _188  and  _190
REMARK   77  A    between atoms: _190  and  _191
REMARK   78  A    between atoms: _190  and  _193
REMARK   79  A    between atoms: _196  and  _198
REMARK   80  A    between atoms: _198  and  _199
REMARK   81  A    between atoms: _198  and  _201
REMARK   82  A    between atoms: _201  and  _202
REMARK   83  A    between atoms: _205  and  _207
REMARK   84  A    between atoms: _207  and  _208
REMARK   85  A    between atoms: _207  and  _210
REMARK   86  A    between atoms: _210  and  _211
REMARK   87  A    between atoms: _214  and  _216
REMARK   88  A    between atoms: _216  and  _217
REMARK   89  A    between atoms: _216  and  _219
REMARK   90  A    between atoms: _219  and  _220
REMARK   91  A    between atoms: _226  and  _228
REMARK   92  A    between atoms: _228  and  _229
REMARK   93  A    between atoms: _228  and  _231
REMARK   94  A    between atoms: _231  and  _232
REMARK   95  A    between atoms: _237  and  _239
REMARK   96  A    between atoms: _239  and  _240
REMARK   97  A    between atoms: _239  and  _242
REMARK   98  A    between atoms: _242  and  _243
REMARK   99  A    between atoms: _253  and  _255
REMARK  100  A    between atoms: _255  and  _256
REMARK  101  A    between atoms: _255  and  _258
REMARK  102  A    between atoms: _258  and  _259
REMARK  103  A    between atoms: _264  and  _265
REMARK  104  A    between atoms: _267  and  _269
REMARK  105  A    between atoms: _269  and  _270
REMARK  106  A    between atoms: _273  and  _275
REMARK  107  A    between atoms: _275  and  _276
REMARK  108  A    between atoms: _275  and  _278
REMARK  109  A    between atoms: _278  and  _279
REMARK  110  A    between atoms: _285  and  _287
REMARK  111  A    between atoms: _287  and  _288
REMARK  112  A    between atoms: _287  and  _290
REMARK  113  A    between atoms: _290  and  _291
REMARK  114  A    between atoms: _296  and  _298
REMARK  115  A    between atoms: _298  and  _299
REMARK  116  A    between atoms: _298  and  _301
REMARK  117  A    between atoms: _301  and  _302
REMARK  118  A    between atoms: _307  and  _309
REMARK  119  A    between atoms: _309  and  _310
REMARK  120  A    between atoms: _309  and  _312
REMARK  121  A    between atoms: _312  and  _313
REMARK  122  A    between atoms: _313  and  _314
REMARK  123  A    between atoms: _319  and  _321
REMARK  124  A    between atoms: _321  and  _322
REMARK  125  A    between atoms: _321  and  _324
REMARK  126  A    between atoms: _324  and  _325
REMARK  127  A    between atoms: _330  and  _331
REMARK  128  A    between atoms: _333  and  _335
REMARK  129  A    between atoms: _335  and  _336
REMARK  130  A    between atoms: _335  and  _338
REMARK  131  A    between atoms: _338  and  _339
REMARK  132  A    between atoms: _342  and  _344
REMARK  133  A    between atoms: _344  and  _345
REMARK  134  A    between atoms: _348  and  _350
REMARK  135  A    between atoms: _350  and  _351
REMARK  136  A    between atoms: _350  and  _353
REMARK  137  A    between atoms: _353  and  _354
REMARK  138  A    between atoms: _356  and  _358
REMARK  139  A    between atoms: _358  and  _359
REMARK  140  A    between atoms: _358  and  _361
REMARK  141  A    between atoms: _361  and  _362
REMARK  142  A    between atoms: _367  and  _368
REMARK  143  A    between atoms: _370  and  _372
REMARK  144  A    between atoms: _372  and  _373
REMARK  145  A    between atoms: _372  and  _375
REMARK  146  A    between atoms: _375  and  _376
REMARK  147  A    between atoms: _376  and  _377
REMARK  148  A    between atoms: _379  and  _381
REMARK  149  A    between atoms: _381  and  _382
REMARK  150  A    between atoms: _381  and  _384
REMARK  151  A    between atoms: _384  and  _385
REMARK  152  A    between atoms: _385  and  _386
REMARK  153  A    between atoms: _386  and  _387
REMARK  154  A    between atoms: _387  and  _388
REMARK  155  A    between atoms: _392  and  _394
REMARK  156  A    between atoms: _394  and  _395
REMARK  157  A    between atoms: _394  and  _397
REMARK  158  A    between atoms: _397  and  _398
REMARK  159  A    between atoms: _400  and  _402
REMARK  160  A    between atoms: _402  and  _403
REMARK  161  A    between atoms: _402  and  _405
REMARK  162  A    between atoms: _405  and  _406
REMARK  163  A    between atoms: _411  and  _412
REMARK  164  A    between atoms: _414  and  _416
REMARK  165  A    between atoms: _416  and  _417
REMARK  166  A    between atoms: _416  and  _419
REMARK  167  A    between atoms: _419  and  _420
REMARK  168  A    between atoms: _422  and  _424
REMARK  169  A    between atoms: _424  and  _425
REMARK  170  A    between atoms: _428  and  _430
REMARK  171  A    between atoms: _430  and  _431
REMARK  172  A    between atoms: _430  and  _433
REMARK  173  A    between atoms: _433  and  _434
REMARK  174  A    between atoms: _437  and  _439
REMARK  175  A    between atoms: _439  and  _440
REMARK  176  A    between atoms: _439  and  _442
REMARK  177  A    between atoms: _442  and  _443
REMARK  178  A    between atoms: _453  and  _455
REMARK  179  A    between atoms: _455  and  _456
REMARK  180  A    between atoms: _455  and  _458
REMARK  181  A    between atoms: _458  and  _459
REMARK  182  A    between atoms: _459  and  _460
REMARK  183  A    between atoms: _465  and  _467
REMARK  184  A    between atoms: _467  and  _468
REMARK  185  A    between atoms: _467  and  _470
REMARK  186  A    between atoms: _473  and  _475
REMARK  187  A    between atoms: _475  and  _476
REMARK  188  A    between atoms: _475  and  _478
REMARK  189  A    between atoms: _478  and  _479
REMARK  190  A    between atoms: _482  and  _484
REMARK  191  A    between atoms: _484  and  _485
REMARK  192  A    between atoms: _488  and  _490
REMARK  193  A    between atoms: _490  and  _491
REMARK  194  A    between atoms: _490  and  _493
REMARK  195  A    between atoms: _496  and  _498
REMARK  196  A    between atoms: _498  and  _499
REMARK  197  A    between atoms: _498  and  _501
REMARK  198  A    between atoms: _501  and  _502
REMARK  199  A    between atoms: _508  and  _510
REMARK  200  A    between atoms: _510  and  _511
REMARK  201  A    between atoms: _510  and  _513
REMARK  202  A    between atoms: _513  and  _514
REMARK  203  A    between atoms: _516  and  _518
REMARK  204  A    between atoms: _518  and  _519
REMARK  205  A    between atoms: _518  and  _521
REMARK  206  A    between atoms: _521  and  _522
REMARK  207  A    between atoms: _527  and  _529
REMARK  208  A    between atoms: _529  and  _530
REMARK  209  A    between atoms: _529  and  _532
REMARK  210  A    between atoms: _532  and  _533
REMARK  211  A    between atoms: _543  and  _545
REMARK  212  A    between atoms: _545  and  _546
REMARK  213  A    between atoms: _545  and  _548
REMARK  214  A    between atoms: _548  and  _549
REMARK  215  A    between atoms: _552  and  _554
REMARK  216  A    between atoms: _554  and  _555
REMARK  217  A    between atoms: _554  and  _557
REMARK  218  A    between atoms: _557  and  _558
REMARK  219  A    between atoms: _563  and  _564
REMARK  220  A    between atoms: _566  and  _568
REMARK  221  A    between atoms: _568  and  _569
REMARK  222  A    between atoms: _568  and  _571
REMARK  223  A    between atoms: _571  and  _572
REMARK  224  A    between atoms: _575  and  _577
REMARK  225  A    between atoms: _577  and  _578
REMARK  226  A    between atoms: _577  and  _580
REMARK  227  A    between atoms: _580  and  _581
REMARK  228  A    between atoms: _581  and  _582
REMARK  229  A    between atoms: _585  and  _587
REMARK  230  A    between atoms: _587  and  _588
REMARK  231  A    between atoms: _587  and  _590
REMARK  232  A    between atoms: _590  and  _591
REMARK  233  A    between atoms: _596  and  _598
REMARK  234  A    between atoms: _598  and  _599
REMARK  235  A    between atoms: _601  and  _603
REMARK  236  A    between atoms: _603  and  _604
REMARK  237  A    between atoms: _603  and  _606
REMARK  238  A    between atoms: _606  and  _607
REMARK  239  A    between atoms: _607  and  _608
REMARK  240  A    between atoms: _610  and  _612
REMARK  241  A    between atoms: _612  and  _613
REMARK  242  A    between atoms: _612  and  _615
REMARK  243  A    between atoms: _615  and  _616
REMARK  244  A    between atoms: _619  and  _621
REMARK  245  A    between atoms: _621  and  _622
REMARK  246  A    between atoms: _621  and  _624
REMARK  247  A    between atoms: _624  and  _625
REMARK  248  A    between atoms: _635  and  _637
REMARK  249  A    between atoms: _637  and  _638
REMARK  250  A    between atoms: _637  and  _640
REMARK  251  A    between atoms: _640  and  _641
REMARK  252  A    between atoms: _643  and  _645
REMARK  253  A    between atoms: _645  and  _646
REMARK  254  A    between atoms: _645  and  _648
REMARK  255  A    between atoms: _648  and  _649
REMARK  256  A    between atoms: _654  and  _656
REMARK  257  A    between atoms: _656  and  _657
REMARK  258  A    between atoms: _656  and  _659
REMARK  259  A    between atoms: _659  and  _660
REMARK  260  A    between atoms: _666  and  _668
REMARK  261  A    between atoms: _668  and  _669
REMARK  262  A    between atoms: _668  and  _671
REMARK  263  A    between atoms: _671  and  _672
REMARK  264  A    between atoms: _672  and  _673
REMARK  265  A    between atoms: _676  and  _678
REMARK  266  A    between atoms: _678  and  _679
REMARK  267  A    between atoms: _678  and  _681
REMARK  268  A    between atoms: _681  and  _682
REMARK  269  A    between atoms: _692  and  _694
REMARK  270  A    between atoms: _694  and  _695
REMARK  271  A    between atoms: _694  and  _697
REMARK  272  A    between atoms: _697  and  _698
REMARK  273  A    between atoms: _701  and  _703
REMARK  274  A    between atoms: _703  and  _704
REMARK  275  A    between atoms: _703  and  _706
REMARK  276  A    between atoms: _706  and  _707
REMARK  277  A    between atoms: _709  and  _711
REMARK  278  A    between atoms: _711  and  _712
REMARK  279  A    between atoms: _711  and  _714
REMARK  280  A    between atoms: _714  and  _715
REMARK  281  A    between atoms: _717  and  _719
REMARK  282  A    between atoms: _719  and  _720
REMARK  283  A    between atoms: _719  and  _722
REMARK  284  A    between atoms: _722  and  _723
REMARK                            x       y       z     vdW  Elec       q    Type
REMARK                         _______ _______ _______ _____ _____    ______ ____
ROOT
ATOM      1  O   HOH     1       1.430 -11.123  38.826  0.00  0.00    +0.000 OA
ENDROOT
TORSDOF 0
REMARK  Name = ../refined-set-2016/4qlk/4qlk_pocket.pdb
REMARK  284 active torsions:
REMARK  status: ('A' for Active; 'I' for Inactive)
REMARK    1  A    between atoms: _1  and  _3
REMARK    2  A    between atoms: _3  and  _4
REMARK    3  A    between atoms: _3  and  _6
REMARK    4  A    between atoms: _9  and  _11
REMARK    5  A    between atoms: _11  and  _12
REMARK    6  A    between atoms: _11  and  _14
REMARK    7  A    between atoms: _14  and  _15
REMARK    8  A    between atoms: _18  and  _20
REMARK    9  A    between atoms: _20  and  _21
REMARK   10  A    between atoms: _20  and  _23
REMARK   11  A    between atoms: _23  and  _24
REMARK   12  A    between atoms: _26  and  _28
REMARK   13  A    between atoms: _28  and  _29
REMARK   14  A    between atoms: _28  and  _31
REMARK   15  A    between atoms: _31  and  _32
REMARK   16  A    between atoms: _32  and  _33
REMARK   17  A    between atoms: _38  and  _40
REMARK   18  A    between atoms: _40  and  _41
REMARK   19  A    between atoms: _40  and  _43
REMARK   20  A    between atoms: _43  and  _44
REMARK   21  A    between atoms: _44  and  _45
REMARK   22  A    between atoms: _45  and  _46
REMARK   23  A    between atoms: _55  and  _57
REMARK   24  A    between atoms: _57  and  _58
REMARK   25  A    between atoms: _57  and  _60
REMARK   26  A    between atoms: _60  and  _61
REMARK   27  A    between atoms: _66  and  _68
REMARK   28  A    between atoms: _68  and  _69
REMARK   29  A    between atoms: _68  and  _71
REMARK   30  A    between atoms: _71  and  _72
REMARK   31  A    between atoms: _77  and  _78
REMARK   32  A    between atoms: _80  and  _82
REMARK   33  A    between atoms: _82  and  _83
REMARK   34  A    between atoms: _82  and  _85
REMARK   35  A    between atoms: _85  and  _86
REMARK   36  A    between atoms: _91  and  _93
REMARK   37  A    between atoms: _93  and  _94
REMARK   38  A    between atoms: _93  and  _96
REMARK   39  A    between atoms: _96  and  _97
REMARK   40  A    between atoms: _97  and  _98
REMARK   41  A    between atoms: _103  and  _105
REMARK   42  A    between atoms: _105  and  _106
REMARK   43  A    between atoms: _105  and  _108
REMARK   44  A    between atoms: _108  and  _109
REMARK   45  A    between atoms: _109  and  _110
REMARK   46  A    between atoms: _110  and  _111
REMARK   47  A    between atoms: _120  and  _122
REMARK   48  A    between atoms: _122  and  _123
REMARK   49  A    between atoms: _122  and  _125
REMARK   50  A    between atoms: _125  and  _126
REMARK   51  A    between atoms: _129  and  _131
REMARK   52  A    between atoms: _131  and  _132
REMARK   53  A    between atoms: _131  and  _134
REMARK   54  A    between atoms: _134  and  _135
REMARK   55  A    between atoms: _138  and  _140
REMARK   56  A    between atoms: _140  and  _141
REMARK   57  A    between atoms: _140  and  _143
REMARK   58  A    between atoms: _143  and  _144
REMARK   59  A    between atoms: _147  and  _149
REMARK   60  A    between atoms: _149  and  _150
REMARK   61  A    between atoms: _149  and  _152
REMARK   62  A    between atoms: _152  and  _153
REMARK   63  A    between atoms: _156  and  _158
REMARK   64  A    between atoms: _158  and  _159
REMARK   65  A    between atoms: _158  and  _161
REMARK   66  A    between atoms: _161  and  _162
REMARK   67  A    between atoms: _162  and  _163
REMARK   68  A    between atoms: _168  and  _170
REMARK   69  A    between atoms: _170  and  _171
REMARK   70  A    between atoms: _170  and  _173
REMARK   71  A    between atoms: _173  and  _174
REMARK   72  A    between atoms: _177  and  _179
REMARK   73  A    between atoms: _179  and  _180
REMARK   74  A    between atoms: _179  and  _182
REMARK   75  A    between atoms: _182  and  _183
REMARK   76  A    between atoms: _188  and  _190
REMARK   77  A    between atoms: _190  and  _191
REMARK   78  A    between atoms: _190  and  _193
REMARK   79  A    between atoms: _196  and  _198
REMARK   80  A    between atoms: _198  and  _199
REMARK   81  A    between atoms: _198  and  _201
REMARK   82  A    between atoms: _201  and  _202
REMARK   83  A    between atoms: _205  and  _207
REMARK   84  A    between atoms: _207  and  _208
REMARK   85  A    between atoms: _207  and  _210
REMARK   86  A    between atoms: _210  and  _211
REMARK   87  A    between atoms: _214  and  _216
REMARK   88  A    between atoms: _216  and  _217
REMARK   89  A    between atoms: _216  and  _219
REMARK   90  A    between atoms: _219  and  _220
REMARK   91  A    between atoms: _226  and  _228
REMARK   92  A    between atoms: _228  and  _229
REMARK   93  A    between atoms: _228  and  _231
REMARK   94  A    between atoms: _231  and  _232
REMARK   95  A    between atoms: _237  and  _239
REMARK   96  A    between atoms: _239  and  _240
REMARK   97  A    between atoms: _239  and  _242
REMARK   98  A    between atoms: _242  and  _243
REMARK   99  A    between atoms: _253  and  _255
REMARK  100  A    between atoms: _255  and  _256
REMARK  101  A    between atoms: _255  and  _258
REMARK  102  A    between atoms: _258  and  _259
REMARK  103  A    between atoms: _264  and  _265
REMARK  104  A    between atoms: _267  and  _269
REMARK  105  A    between atoms: _269  and  _270
REMARK  106  A    between atoms: _273  and  _275
REMARK  107  A    between atoms: _275  and  _276
REMARK  108  A    between atoms: _275  and  _278
REMARK  109  A    between atoms: _278  and  _279
REMARK  110  A    between atoms: _285  and  _287
REMARK  111  A    between atoms: _287  and  _288
REMARK  112  A    between atoms: _287  and  _290
REMARK  113  A    between atoms: _290  and  _291
REMARK  114  A    between atoms: _296  and  _298
REMARK  115  A    between atoms: _298  and  _299
REMARK  116  A    between atoms: _298  and  _301
REMARK  117  A    between atoms: _301  and  _302
REMARK  118  A    between atoms: _307  and  _309
REMARK  119  A    between atoms: _309  and  _310
REMARK  120  A    between atoms: _309  and  _312
REMARK  121  A    between atoms: _312  and  _313
REMARK  122  A    between atoms: _313  and  _314
REMARK  123  A    between atoms: _319  and  _321
REMARK  124  A    between atoms: _321  and  _322
REMARK  125  A    between atoms: _321  and  _324
REMARK  126  A    between atoms: _324  and  _325
REMARK  127  A    between atoms: _330  and  _331
REMARK  128  A    between atoms: _333  and  _335
REMARK  129  A    between atoms: _335  and  _336
REMARK  130  A    between atoms: _335  and  _338
REMARK  131  A    between atoms: _338  and  _339
REMARK  132  A    between atoms: _342  and  _344
REMARK  133  A    between atoms: _344  and  _345
REMARK  134  A    between atoms: _348  and  _350
REMARK  135  A    between atoms: _350  and  _351
REMARK  136  A    between atoms: _350  and  _353
REMARK  137  A    between atoms: _353  and  _354
REMARK  138  A    between atoms: _356  and  _358
REMARK  139  A    between atoms: _358  and  _359
REMARK  140  A    between atoms: _358  and  _361
REMARK  141  A    between atoms: _361  and  _362
REMARK  142  A    between atoms: _367  and  _368
REMARK  143  A    between atoms: _370  and  _372
REMARK  144  A    between atoms: _372  and  _373
REMARK  145  A    between atoms: _372  and  _375
REMARK  146  A    between atoms: _375  and  _376
REMARK  147  A    between atoms: _376  and  _377
REMARK  148  A    between atoms: _379  and  _381
REMARK  149  A    between atoms: _381  and  _382
REMARK  150  A    between atoms: _381  and  _384
REMARK  151  A    between atoms: _384  and  _385
REMARK  152  A    between atoms: _385  and  _386
REMARK  153  A    between atoms: _386  and  _387
REMARK  154  A    between atoms: _387  and  _388
REMARK  155  A    between atoms: _392  and  _394
REMARK  156  A    between atoms: _394  and  _395
REMARK  157  A    between atoms: _394  and  _397
REMARK  158  A    between atoms: _397  and  _398
REMARK  159  A    between atoms: _400  and  _402
REMARK  160  A    between atoms: _402  and  _403
REMARK  161  A    between atoms: _402  and  _405
REMARK  162  A    between atoms: _405  and  _406
REMARK  163  A    between atoms: _411  and  _412
REMARK  164  A    between atoms: _414  and  _416
REMARK  165  A    between atoms: _416  and  _417
REMARK  166  A    between atoms: _416  and  _419
REMARK  167  A    between atoms: _419  and  _420
REMARK  168  A    between atoms: _422  and  _424
REMARK  169  A    between atoms: _424  and  _425
REMARK  170  A    between atoms: _428  and  _430
REMARK  171  A    between atoms: _430  and  _431
REMARK  172  A    between atoms: _430  and  _433
REMARK  173  A    between atoms: _433  and  _434
REMARK  174  A    between atoms: _437  and  _439
REMARK  175  A    between atoms: _439  and  _440
REMARK  176  A    between atoms: _439  and  _442
REMARK  177  A    between atoms: _442  and  _443
REMARK  178  A    between atoms: _453  and  _455
REMARK  179  A    between atoms: _455  and  _456
REMARK  180  A    between atoms: _455  and  _458
REMARK  181  A    between atoms: _458  and  _459
REMARK  182  A    between atoms: _459  and  _460
REMARK  183  A    between atoms: _465  and  _467
REMARK  184  A    between atoms: _467  and  _468
REMARK  185  A    between atoms: _467  and  _470
REMARK  186  A    between atoms: _473  and  _475
REMARK  187  A    between atoms: _475  and  _476
REMARK  188  A    between atoms: _475  and  _478
REMARK  189  A    between atoms: _478  and  _479
REMARK  190  A    between atoms: _482  and  _484
REMARK  191  A    between atoms: _484  and  _485
REMARK  192  A    between atoms: _488  and  _490
REMARK  193  A    between atoms: _490  and  _491
REMARK  194  A    between atoms: _490  and  _493
REMARK  195  A    between atoms: _496  and  _498
REMARK  196  A    between atoms: _498  and  _499
REMARK  197  A    between atoms: _498  and  _501
REMARK  198  A    between atoms: _501  and  _502
REMARK  199  A    between atoms: _508  and  _510
REMARK  200  A    between atoms: _510  and  _511
REMARK  201  A    between atoms: _510  and  _513
REMARK  202  A    between atoms: _513  and  _514
REMARK  203  A    between atoms: _516  and  _518
REMARK  204  A    between atoms: _518  and  _519
REMARK  205  A    between atoms: _518  and  _521
REMARK  206  A    between atoms: _521  and  _522
REMARK  207  A    between atoms: _527  and  _529
REMARK  208  A    between atoms: _529  and  _530
REMARK  209  A    between atoms: _529  and  _532
REMARK  210  A    between atoms: _532  and  _533
REMARK  211  A    between atoms: _543  and  _545
REMARK  212  A    between atoms: _545  and  _546
REMARK  213  A    between atoms: _545  and  _548
REMARK  214  A    between atoms: _548  and  _549
REMARK  215  A    between atoms: _552  and  _554
REMARK  216  A    between atoms: _554  and  _555
REMARK  217  A    between atoms: _554  and  _557
REMARK  218  A    between atoms: _557  and  _558
REMARK  219  A    between atoms: _563  and  _564
REMARK  220  A    between atoms: _566  and  _568
REMARK  221  A    between atoms: _568  and  _569
REMARK  222  A    between atoms: _568  and  _571
REMARK  223  A    between atoms: _571  and  _572
REMARK  224  A    between atoms: _575  and  _577
REMARK  225  A    between atoms: _577  and  _578
REMARK  226  A    between atoms: _577  and  _580
REMARK  227  A    between atoms: _580  and  _581
REMARK  228  A    between atoms: _581  and  _582
REMARK  229  A    between atoms: _585  and  _587
REMARK  230  A    between atoms: _587  and  _588
REMARK  231  A    between atoms: _587  and  _590
REMARK  232  A    between atoms: _590  and  _591
REMARK  233  A    between atoms: _596  and  _598
REMARK  234  A    between atoms: _598  and  _599
REMARK  235  A    between atoms: _601  and  _603
REMARK  236  A    between atoms: _603  and  _604
REMARK  237  A    between atoms: _603  and  _606
REMARK  238  A    between atoms: _606  and  _607
REMARK  239  A    between atoms: _607  and  _608
REMARK  240  A    between atoms: _610  and  _612
REMARK  241  A    between atoms: _612  and  _613
REMARK  242  A    between atoms: _612  and  _615
REMARK  243  A    between atoms: _615  and  _616
REMARK  244  A    between atoms: _619  and  _621
REMARK  245  A    between atoms: _621  and  _622
REMARK  246  A    between atoms: _621  and  _624
REMARK  247  A    between atoms: _624  and  _625
REMARK  248  A    between atoms: _635  and  _637
REMARK  249  A    between atoms: _637  and  _638
REMARK  250  A    between atoms: _637  and  _640
REMARK  251  A    between atoms: _640  and  _641
REMARK  252  A    between atoms: _643  and  _645
REMARK  253  A    between atoms: _645  and  _646
REMARK  254  A    between atoms: _645  and  _648
REMARK  255  A    between atoms: _648  and  _649
REMARK  256  A    between atoms: _654  and  _656
REMARK  257  A    between atoms: _656  and  _657
REMARK  258  A    between atoms: _656  and  _659
REMARK  259  A    between atoms: _659  and  _660
REMARK  260  A    between atoms: _666  and  _668
REMARK  261  A    between atoms: _668  and  _669
REMARK  262  A    between atoms: _668  and  _671
REMARK  263  A    between atoms: _671  and  _672
REMARK  264  A    between atoms: _672  and  _673
REMARK  265  A    between atoms: _676  and  _678
REMARK  266  A    between atoms: _678  and  _679
REMARK  267  A    between atoms: _678  and  _681
REMARK  268  A    between atoms: _681  and  _682
REMARK  269  A    between atoms: _692  and  _694
REMARK  270  A    between atoms: _694  and  _695
REMARK  271  A    between atoms: _694  and  _697
REMARK  272  A    between atoms: _697  and  _698
REMARK  273  A    between atoms: _701  and  _703
REMARK  274  A    between atoms: _703  and  _704
REMARK  275  A    between atoms: _703  and  _706
REMARK  276  A    between atoms: _706  and  _707
REMARK  277  A    between atoms: _709  and  _711
REMARK  278  A    between atoms: _711  and  _712
REMARK  279  A    between atoms: _711  and  _714
REMARK  280  A    between atoms: _714  and  _715
REMARK  281  A    between atoms: _717  and  _719
REMARK  282  A    between atoms: _719  and  _720
REMARK  283  A    between atoms: _719  and  _722
REMARK  284  A    between atoms: _722  and  _723
REMARK                            x       y       z     vdW  Elec       q    Type
REMARK                         _______ _______ _______ _____ _____    ______ ____
ROOT
ATOM      1  O   HOH     1     -18.290  -2.025  58.317  0.00  0.00    +0.000 OA
ENDROOT
TORSDOF 0
REMARK  Name = ../refined-set-2016/4qlk/4qlk_pocket.pdb
REMARK  284 active torsions:
REMARK  status: ('A' for Active; 'I' for Inactive)
REMARK    1  A    between atoms: _1  and  _3
REMARK    2  A    between atoms: _3  and  _4
REMARK    3  A    between atoms: _3  and  _6
REMARK    4  A    between atoms: _9  and  _11
REMARK    5  A    between atoms: _11  and  _12
REMARK    6  A    between atoms: _11  and  _14
REMARK    7  A    between atoms: _14  and  _15
REMARK    8  A    between atoms: _18  and  _20
REMARK    9  A    between atoms: _20  and  _21
REMARK   10  A    between atoms: _20  and  _23
REMARK   11  A    between atoms: _23  and  _24
REMARK   12  A    between atoms: _26  and  _28
REMARK   13  A    between atoms: _28  and  _29
REMARK   14  A    between atoms: _28  and  _31
REMARK   15  A    between atoms: _31  and  _32
REMARK   16  A    between atoms: _32  and  _33
REMARK   17  A    between atoms: _38  and  _40
REMARK   18  A    between atoms: _40  and  _41
REMARK   19  A    between atoms: _40  and  _43
REMARK   20  A    between atoms: _43  and  _44
REMARK   21  A    between atoms: _44  and  _45
REMARK   22  A    between atoms: _45  and  _46
REMARK   23  A    between atoms: _55  and  _57
REMARK   24  A    between atoms: _57  and  _58
REMARK   25  A    between atoms: _57  and  _60
REMARK   26  A    between atoms: _60  and  _61
REMARK   27  A    between atoms: _66  and  _68
REMARK   28  A    between atoms: _68  and  _69
REMARK   29  A    between atoms: _68  and  _71
REMARK   30  A    between atoms: _71  and  _72
REMARK   31  A    between atoms: _77  and  _78
REMARK   32  A    between atoms: _80  and  _82
REMARK   33  A    between atoms: _82  and  _83
REMARK   34  A    between atoms: _82  and  _85
REMARK   35  A    between atoms: _85  and  _86
REMARK   36  A    between atoms: _91  and  _93
REMARK   37  A    between atoms: _93  and  _94
REMARK   38  A    between atoms: _93  and  _96
REMARK   39  A    between atoms: _96  and  _97
REMARK   40  A    between atoms: _97  and  _98
REMARK   41  A    between atoms: _103  and  _105
REMARK   42  A    between atoms: _105  and  _106
REMARK   43  A    between atoms: _105  and  _108
REMARK   44  A    between atoms: _108  and  _109
REMARK   45  A    between atoms: _109  and  _110
REMARK   46  A    between atoms: _110  and  _111
REMARK   47  A    between atoms: _120  and  _122
REMARK   48  A    between atoms: _122  and  _123
REMARK   49  A    between atoms: _122  and  _125
REMARK   50  A    between atoms: _125  and  _126
REMARK   51  A    between atoms: _129  and  _131
REMARK   52  A    between atoms: _131  and  _132
REMARK   53  A    between atoms: _131  and  _134
REMARK   54  A    between atoms: _134  and  _135
REMARK   55  A    between atoms: _138  and  _140
REMARK   56  A    between atoms: _140  and  _141
REMARK   57  A    between atoms: _140  and  _143
REMARK   58  A    between atoms: _143  and  _144
REMARK   59  A    between atoms: _147  and  _149
REMARK   60  A    between atoms: _149  and  _150
REMARK   61  A    between atoms: _149  and  _152
REMARK   62  A    between atoms: _152  and  _153
REMARK   63  A    between atoms: _156  and  _158
REMARK   64  A    between atoms: _158  and  _159
REMARK   65  A    between atoms: _158  and  _161
REMARK   66  A    between atoms: _161  and  _162
REMARK   67  A    between atoms: _162  and  _163
REMARK   68  A    between atoms: _168  and  _170
REMARK   69  A    between atoms: _170  and  _171
REMARK   70  A    between atoms: _170  and  _173
REMARK   71  A    between atoms: _173  and  _174
REMARK   72  A    between atoms: _177  and  _179
REMARK   73  A    between atoms: _179  and  _180
REMARK   74  A    between atoms: _179  and  _182
REMARK   75  A    between atoms: _182  and  _183
REMARK   76  A    between atoms: _188  and  _190
REMARK   77  A    between atoms: _190  and  _191
REMARK   78  A    between atoms: _190  and  _193
REMARK   79  A    between atoms: _196  and  _198
REMARK   80  A    between atoms: _198  and  _199
REMARK   81  A    between atoms: _198  and  _201
REMARK   82  A    between atoms: _201  and  _202
REMARK   83  A    between atoms: _205  and  _207
REMARK   84  A    between atoms: _207  and  _208
REMARK   85  A    between atoms: _207  and  _210
REMARK   86  A    between atoms: _210  and  _211
REMARK   87  A    between atoms: _214  and  _216
REMARK   88  A    between atoms: _216  and  _217
REMARK   89  A    between atoms: _216  and  _219
REMARK   90  A    between atoms: _219  and  _220
REMARK   91  A    between atoms: _226  and  _228
REMARK   92  A    between atoms: _228  and  _229
REMARK   93  A    between atoms: _228  and  _231
REMARK   94  A    between atoms: _231  and  _232
REMARK   95  A    between atoms: _237  and  _239
REMARK   96  A    between atoms: _239  and  _240
REMARK   97  A    between atoms: _239  and  _242
REMARK   98  A    between atoms: _242  and  _243
REMARK   99  A    between atoms: _253  and  _255
REMARK  100  A    between atoms: _255  and  _256
REMARK  101  A    between atoms: _255  and  _258
REMARK  102  A    between atoms: _258  and  _259
REMARK  103  A    between atoms: _264  and  _265
REMARK  104  A    between atoms: _267  and  _269
REMARK  105  A    between atoms: _269  and  _270
REMARK  106  A    between atoms: _273  and  _275
REMARK  107  A    between atoms: _275  and  _276
REMARK  108  A    between atoms: _275  and  _278
REMARK  109  A    between atoms: _278  and  _279
REMARK  110  A    between atoms: _285  and  _287
REMARK  111  A    between atoms: _287  and  _288
REMARK  112  A    between atoms: _287  and  _290
REMARK  113  A    between atoms: _290  and  _291
REMARK  114  A    between atoms: _296  and  _298
REMARK  115  A    between atoms: _298  and  _299
REMARK  116  A    between atoms: _298  and  _301
REMARK  117  A    between atoms: _301  and  _302
REMARK  118  A    between atoms: _307  and  _309
REMARK  119  A    between atoms: _309  and  _310
REMARK  120  A    between atoms: _309  and  _312
REMARK  121  A    between atoms: _312  and  _313
REMARK  122  A    between atoms: _313  and  _314
REMARK  123  A    between atoms: _319  and  _321
REMARK  124  A    between atoms: _321  and  _322
REMARK  125  A    between atoms: _321  and  _324
REMARK  126  A    between atoms: _324  and  _325
REMARK  127  A    between atoms: _330  and  _331
REMARK  128  A    between atoms: _333  and  _335
REMARK  129  A    between atoms: _335  and  _336
REMARK  130  A    between atoms: _335  and  _338
REMARK  131  A    between atoms: _338  and  _339
REMARK  132  A    between atoms: _342  and  _344
REMARK  133  A    between atoms: _344  and  _345
REMARK  134  A    between atoms: _348  and  _350
REMARK  135  A    between atoms: _350  and  _351
REMARK  136  A    between atoms: _350  and  _353
REMARK  137  A    between atoms: _353  and  _354
REMARK  138  A    between atoms: _356  and  _358
REMARK  139  A    between atoms: _358  and  _359
REMARK  140  A    between atoms: _358  and  _361
REMARK  141  A    between atoms: _361  and  _362
REMARK  142  A    between atoms: _367  and  _368
REMARK  143  A    between atoms: _370  and  _372
REMARK  144  A    between atoms: _372  and  _373
REMARK  145  A    between atoms: _372  and  _375
REMARK  146  A    between atoms: _375  and  _376
REMARK  147  A    between atoms: _376  and  _377
REMARK  148  A    between atoms: _379  and  _381
REMARK  149  A    between atoms: _381  and  _382
REMARK  150  A    between atoms: _381  and  _384
REMARK  151  A    between atoms: _384  and  _385
REMARK  152  A    between atoms: _385  and  _386
REMARK  153  A    between atoms: _386  and  _387
REMARK  154  A    between atoms: _387  and  _388
REMARK  155  A    between atoms: _392  and  _394
REMARK  156  A    between atoms: _394  and  _395
REMARK  157  A    between atoms: _394  and  _397
REMARK  158  A    between atoms: _397  and  _398
REMARK  159  A    between atoms: _400  and  _402
REMARK  160  A    between atoms: _402  and  _403
REMARK  161  A    between atoms: _402  and  _405
REMARK  162  A    between atoms: _405  and  _406
REMARK  163  A    between atoms: _411  and  _412
REMARK  164  A    between atoms: _414  and  _416
REMARK  165  A    between atoms: _416  and  _417
REMARK  166  A    between atoms: _416  and  _419
REMARK  167  A    between atoms: _419  and  _420
REMARK  168  A    between atoms: _422  and  _424
REMARK  169  A    between atoms: _424  and  _425
REMARK  170  A    between atoms: _428  and  _430
REMARK  171  A    between atoms: _430  and  _431
REMARK  172  A    between atoms: _430  and  _433
REMARK  173  A    between atoms: _433  and  _434
REMARK  174  A    between atoms: _437  and  _439
REMARK  175  A    between atoms: _439  and  _440
REMARK  176  A    between atoms: _439  and  _442
REMARK  177  A    between atoms: _442  and  _443
REMARK  178  A    between atoms: _453  and  _455
REMARK  179  A    between atoms: _455  and  _456
REMARK  180  A    between atoms: _455  and  _458
REMARK  181  A    between atoms: _458  and  _459
REMARK  182  A    between atoms: _459  and  _460
REMARK  183  A    between atoms: _465  and  _467
REMARK  184  A    between atoms: _467  and  _468
REMARK  185  A    between atoms: _467  and  _470
REMARK  186  A    between atoms: _473  and  _475
REMARK  187  A    between atoms: _475  and  _476
REMARK  188  A    between atoms: _475  and  _478
REMARK  189  A    between atoms: _478  and  _479
REMARK  190  A    between atoms: _482  and  _484
REMARK  191  A    between atoms: _484  and  _485
REMARK  192  A    between atoms: _488  and  _490
REMARK  193  A    between atoms: _490  and  _491
REMARK  194  A    between atoms: _490  and  _493
REMARK  195  A    between atoms: _496  and  _498
REMARK  196  A    between atoms: _498  and  _499
REMARK  197  A    between atoms: _498  and  _501
REMARK  198  A    between atoms: _501  and  _502
REMARK  199  A    between atoms: _508  and  _510
REMARK  200  A    between atoms: _510  and  _511
REMARK  201  A    between atoms: _510  and  _513
REMARK  202  A    between atoms: _513  and  _514
REMARK  203  A    between atoms: _516  and  _518
REMARK  204  A    between atoms: _518  and  _519
REMARK  205  A    between atoms: _518  and  _521
REMARK  206  A    between atoms: _521  and  _522
REMARK  207  A    between atoms: _527  and  _529
REMARK  208  A    between atoms: _529  and  _530
REMARK  209  A    between atoms: _529  and  _532
REMARK  210  A    between atoms: _532  and  _533
REMARK  211  A    between atoms: _543  and  _545
REMARK  212  A    between atoms: _545  and  _546
REMARK  213  A    between atoms: _545  and  _548
REMARK  214  A    between atoms: _548  and  _549
REMARK  215  A    between atoms: _552  and  _554
REMARK  216  A    between atoms: _554  and  _555
REMARK  217  A    between atoms: _554  and  _557
REMARK  218  A    between atoms: _557  and  _558
REMARK  219  A    between atoms: _563  and  _564
REMARK  220  A    between atoms: _566  and  _568
REMARK  221  A    between atoms: _568  and  _569
REMARK  222  A    between atoms: _568  and  _571
REMARK  223  A    between atoms: _571  and  _572
REMARK  224  A    between atoms: _575  and  _577
REMARK  225  A    between atoms: _577  and  _578
REMARK  226  A    between atoms: _577  and  _580
REMARK  227  A    between atoms: _580  and  _581
REMARK  228  A    between atoms: _581  and  _582
REMARK  229  A    between atoms: _585  and  _587
REMARK  230  A    between atoms: _587  and  _588
REMARK  231  A    between atoms: _587  and  _590
REMARK  232  A    between atoms: _590  and  _591
REMARK  233  A    between atoms: _596  and  _598
REMARK  234  A    between atoms: _598  and  _599
REMARK  235  A    between atoms: _601  and  _603
REMARK  236  A    between atoms: _603  and  _604
REMARK  237  A    between atoms: _603  and  _606
REMARK  238  A    between atoms: _606  and  _607
REMARK  239  A    between atoms: _607  and  _608
REMARK  240  A    between atoms: _610  and  _612
REMARK  241  A    between atoms: _612  and  _613
REMARK  242  A    between atoms: _612  and  _615
REMARK  243  A    between atoms: _615  and  _616
REMARK  244  A    between atoms: _619  and  _621
REMARK  245  A    between atoms: _621  and  _622
REMARK  246  A    between atoms: _621  and  _624
REMARK  247  A    between atoms: _624  and  _625
REMARK  248  A    between atoms: _635  and  _637
REMARK  249  A    between atoms: _637  and  _638
REMARK  250  A    between atoms: _637  and  _640
REMARK  251  A    between atoms: _640  and  _641
REMARK  252  A    between atoms: _643  and  _645
REMARK  253  A    between atoms: _645  and  _646
REMARK  254  A    between atoms: _645  and  _648
REMARK  255  A    between atoms: _648  and  _649
REMARK  256  A    between atoms: _654  and  _656
REMARK  257  A    between atoms: _656  and  _657
REMARK  258  A    between atoms: _656  and  _659
REMARK  259  A    between atoms: _659  and  _660
REMARK  260  A    between atoms: _666  and  _668
REMARK  261  A    between atoms: _668  and  _669
REMARK  262  A    between atoms: _668  and  _671
REMARK  263  A    between atoms: _671  and  _672
REMARK  264  A    between atoms: _672  and  _673
REMARK  265  A    between atoms: _676  and  _678
REMARK  266  A    between atoms: _678  and  _679
REMARK  267  A    between atoms: _678  and  _681
REMARK  268  A    between atoms: _681  and  _682
REMARK  269  A    between atoms: _692  and  _694
REMARK  270  A    between atoms: _694  and  _695
REMARK  271  A    between atoms: _694  and  _697
REMARK  272  A    between atoms: _697  and  _698
REMARK  273  A    between atoms: _701  and  _703
REMARK  274  A    between atoms: _703  and  _704
REMARK  275  A    between atoms: _703  and  _706
REMARK  276  A    between atoms: _706  and  _707
REMARK  277  A    between atoms: _709  and  _711
REMARK  278  A    between atoms: _711  and  _712
REMARK  279  A    between atoms: _711  and  _714
REMARK  280  A    between atoms: _714  and  _715
REMARK  281  A    between atoms: _717  and  _719
REMARK  282  A    between atoms: _719  and  _720
REMARK  283  A    between atoms: _719  and  _722
REMARK  284  A    between atoms: _722  and  _723
REMARK                            x       y       z     vdW  Elec       q    Type
REMARK                         _______ _______ _______ _____ _____    ______ ____
ROOT
ATOM      1  O   HOH     1      -2.829  -7.851  51.470  0.00  0.00    +0.000 OA
ENDROOT
TORSDOF 0
REMARK  Name = ../refined-set-2016/4qlk/4qlk_pocket.pdb
REMARK  284 active torsions:
REMARK  status: ('A' for Active; 'I' for Inactive)
REMARK    1  A    between atoms: _1  and  _3
REMARK    2  A    between atoms: _3  and  _4
REMARK    3  A    between atoms: _3  and  _6
REMARK    4  A    between atoms: _9  and  _11
REMARK    5  A    between atoms: _11  and  _12
REMARK    6  A    between atoms: _11  and  _14
REMARK    7  A    between atoms: _14  and  _15
REMARK    8  A    between atoms: _18  and  _20
REMARK    9  A    between atoms: _20  and  _21
REMARK   10  A    between atoms: _20  and  _23
REMARK   11  A    between atoms: _23  and  _24
REMARK   12  A    between atoms: _26  and  _28
REMARK   13  A    between atoms: _28  and  _29
REMARK   14  A    between atoms: _28  and  _31
REMARK   15  A    between atoms: _31  and  _32
REMARK   16  A    between atoms: _32  and  _33
REMARK   17  A    between atoms: _38  and  _40
REMARK   18  A    between atoms: _40  and  _41
REMARK   19  A    between atoms: _40  and  _43
REMARK   20  A    between atoms: _43  and  _44
REMARK   21  A    between atoms: _44  and  _45
REMARK   22  A    between atoms: _45  and  _46
REMARK   23  A    between atoms: _55  and  _57
REMARK   24  A    between atoms: _57  and  _58
REMARK   25  A    between atoms: _57  and  _60
REMARK   26  A    between atoms: _60  and  _61
REMARK   27  A    between atoms: _66  and  _68
REMARK   28  A    between atoms: _68  and  _69
REMARK   29  A    between atoms: _68  and  _71
REMARK   30  A    between atoms: _71  and  _72
REMARK   31  A    between atoms: _77  and  _78
REMARK   32  A    between atoms: _80  and  _82
REMARK   33  A    between atoms: _82  and  _83
REMARK   34  A    between atoms: _82  and  _85
REMARK   35  A    between atoms: _85  and  _86
REMARK   36  A    between atoms: _91  and  _93
REMARK   37  A    between atoms: _93  and  _94
REMARK   38  A    between atoms: _93  and  _96
REMARK   39  A    between atoms: _96  and  _97
REMARK   40  A    between atoms: _97  and  _98
REMARK   41  A    between atoms: _103  and  _105
REMARK   42  A    between atoms: _105  and  _106
REMARK   43  A    between atoms: _105  and  _108
REMARK   44  A    between atoms: _108  and  _109
REMARK   45  A    between atoms: _109  and  _110
REMARK   46  A    between atoms: _110  and  _111
REMARK   47  A    between atoms: _120  and  _122
REMARK   48  A    between atoms: _122  and  _123
REMARK   49  A    between atoms: _122  and  _125
REMARK   50  A    between atoms: _125  and  _126
REMARK   51  A    between atoms: _129  and  _131
REMARK   52  A    between atoms: _131  and  _132
REMARK   53  A    between atoms: _131  and  _134
REMARK   54  A    between atoms: _134  and  _135
REMARK   55  A    between atoms: _138  and  _140
REMARK   56  A    between atoms: _140  and  _141
REMARK   57  A    between atoms: _140  and  _143
REMARK   58  A    between atoms: _143  and  _144
REMARK   59  A    between atoms: _147  and  _149
REMARK   60  A    between atoms: _149  and  _150
REMARK   61  A    between atoms: _149  and  _152
REMARK   62  A    between atoms: _152  and  _153
REMARK   63  A    between atoms: _156  and  _158
REMARK   64  A    between atoms: _158  and  _159
REMARK   65  A    between atoms: _158  and  _161
REMARK   66  A    between atoms: _161  and  _162
REMARK   67  A    between atoms: _162  and  _163
REMARK   68  A    between atoms: _168  and  _170
REMARK   69  A    between atoms: _170  and  _171
REMARK   70  A    between atoms: _170  and  _173
REMARK   71  A    between atoms: _173  and  _174
REMARK   72  A    between atoms: _177  and  _179
REMARK   73  A    between atoms: _179  and  _180
REMARK   74  A    between atoms: _179  and  _182
REMARK   75  A    between atoms: _182  and  _183
REMARK   76  A    between atoms: _188  and  _190
REMARK   77  A    between atoms: _190  and  _191
REMARK   78  A    between atoms: _190  and  _193
REMARK   79  A    between atoms: _196  and  _198
REMARK   80  A    between atoms: _198  and  _199
REMARK   81  A    between atoms: _198  and  _201
REMARK   82  A    between atoms: _201  and  _202
REMARK   83  A    between atoms: _205  and  _207
REMARK   84  A    between atoms: _207  and  _208
REMARK   85  A    between atoms: _207  and  _210
REMARK   86  A    between atoms: _210  and  _211
REMARK   87  A    between atoms: _214  and  _216
REMARK   88  A    between atoms: _216  and  _217
REMARK   89  A    between atoms: _216  and  _219
REMARK   90  A    between atoms: _219  and  _220
REMARK   91  A    between atoms: _226  and  _228
REMARK   92  A    between atoms: _228  and  _229
REMARK   93  A    between atoms: _228  and  _231
REMARK   94  A    between atoms: _231  and  _232
REMARK   95  A    between atoms: _237  and  _239
REMARK   96  A    between atoms: _239  and  _240
REMARK   97  A    between atoms: _239  and  _242
REMARK   98  A    between atoms: _242  and  _243
REMARK   99  A    between atoms: _253  and  _255
REMARK  100  A    between atoms: _255  and  _256
REMARK  101  A    between atoms: _255  and  _258
REMARK  102  A    between atoms: _258  and  _259
REMARK  103  A    between atoms: _264  and  _265
REMARK  104  A    between atoms: _267  and  _269
REMARK  105  A    between atoms: _269  and  _270
REMARK  106  A    between atoms: _273  and  _275
REMARK  107  A    between atoms: _275  and  _276
REMARK  108  A    between atoms: _275  and  _278
REMARK  109  A    between atoms: _278  and  _279
REMARK  110  A    between atoms: _285  and  _287
REMARK  111  A    between atoms: _287  and  _288
REMARK  112  A    between atoms: _287  and  _290
REMARK  113  A    between atoms: _290  and  _291
REMARK  114  A    between atoms: _296  and  _298
REMARK  115  A    between atoms: _298  and  _299
REMARK  116  A    between atoms: _298  and  _301
REMARK  117  A    between atoms: _301  and  _302
REMARK  118  A    between atoms: _307  and  _309
REMARK  119  A    between atoms: _309  and  _310
REMARK  120  A    between atoms: _309  and  _312
REMARK  121  A    between atoms: _312  and  _313
REMARK  122  A    between atoms: _313  and  _314
REMARK  123  A    between atoms: _319  and  _321
REMARK  124  A    between atoms: _321  and  _322
REMARK  125  A    between atoms: _321  and  _324
REMARK  126  A    between atoms: _324  and  _325
REMARK  127  A    between atoms: _330  and  _331
REMARK  128  A    between atoms: _333  and  _335
REMARK  129  A    between atoms: _335  and  _336
REMARK  130  A    between atoms: _335  and  _338
REMARK  131  A    between atoms: _338  and  _339
REMARK  132  A    between atoms: _342  and  _344
REMARK  133  A    between atoms: _344  and  _345
REMARK  134  A    between atoms: _348  and  _350
REMARK  135  A    between atoms: _350  and  _351
REMARK  136  A    between atoms: _350  and  _353
REMARK  137  A    between atoms: _353  and  _354
REMARK  138  A    between atoms: _356  and  _358
REMARK  139  A    between atoms: _358  and  _359
REMARK  140  A    between atoms: _358  and  _361
REMARK  141  A    between atoms: _361  and  _362
REMARK  142  A    between atoms: _367  and  _368
REMARK  143  A    between atoms: _370  and  _372
REMARK  144  A    between atoms: _372  and  _373
REMARK  145  A    between atoms: _372  and  _375
REMARK  146  A    between atoms: _375  and  _376
REMARK  147  A    between atoms: _376  and  _377
REMARK  148  A    between atoms: _379  and  _381
REMARK  149  A    between atoms: _381  and  _382
REMARK  150  A    between atoms: _381  and  _384
REMARK  151  A    between atoms: _384  and  _385
REMARK  152  A    between atoms: _385  and  _386
REMARK  153  A    between atoms: _386  and  _387
REMARK  154  A    between atoms: _387  and  _388
REMARK  155  A    between atoms: _392  and  _394
REMARK  156  A    between atoms: _394  and  _395
REMARK  157  A    between atoms: _394  and  _397
REMARK  158  A    between atoms: _397  and  _398
REMARK  159  A    between atoms: _400  and  _402
REMARK  160  A    between atoms: _402  and  _403
REMARK  161  A    between atoms: _402  and  _405
REMARK  162  A    between atoms: _405  and  _406
REMARK  163  A    between atoms: _411  and  _412
REMARK  164  A    between atoms: _414  and  _416
REMARK  165  A    between atoms: _416  and  _417
REMARK  166  A    between atoms: _416  and  _419
REMARK  167  A    between atoms: _419  and  _420
REMARK  168  A    between atoms: _422  and  _424
REMARK  169  A    between atoms: _424  and  _425
REMARK  170  A    between atoms: _428  and  _430
REMARK  171  A    between atoms: _430  and  _431
REMARK  172  A    between atoms: _430  and  _433
REMARK  173  A    between atoms: _433  and  _434
REMARK  174  A    between atoms: _437  and  _439
REMARK  175  A    between atoms: _439  and  _440
REMARK  176  A    between atoms: _439  and  _442
REMARK  177  A    between atoms: _442  and  _443
REMARK  178  A    between atoms: _453  and  _455
REMARK  179  A    between atoms: _455  and  _456
REMARK  180  A    between atoms: _455  and  _458
REMARK  181  A    between atoms: _458  and  _459
REMARK  182  A    between atoms: _459  and  _460
REMARK  183  A    between atoms: _465  and  _467
REMARK  184  A    between atoms: _467  and  _468
REMARK  185  A    between atoms: _467  and  _470
REMARK  186  A    between atoms: _473  and  _475
REMARK  187  A    between atoms: _475  and  _476
REMARK  188  A    between atoms: _475  and  _478
REMARK  189  A    between atoms: _478  and  _479
REMARK  190  A    between atoms: _482  and  _484
REMARK  191  A    between atoms: _484  and  _485
REMARK  192  A    between atoms: _488  and  _490
REMARK  193  A    between atoms: _490  and  _491
REMARK  194  A    between atoms: _490  and  _493
REMARK  195  A    between atoms: _496  and  _498
REMARK  196  A    between atoms: _498  and  _499
REMARK  197  A    between atoms: _498  and  _501
REMARK  198  A    between atoms: _501  and  _502
REMARK  199  A    between atoms: _508  and  _510
REMARK  200  A    between atoms: _510  and  _511
REMARK  201  A    between atoms: _510  and  _513
REMARK  202  A    between atoms: _513  and  _514
REMARK  203  A    between atoms: _516  and  _518
REMARK  204  A    between atoms: _518  and  _519
REMARK  205  A    between atoms: _518  and  _521
REMARK  206  A    between atoms: _521  and  _522
REMARK  207  A    between atoms: _527  and  _529
REMARK  208  A    between atoms: _529  and  _530
REMARK  209  A    between atoms: _529  and  _532
REMARK  210  A    between atoms: _532  and  _533
REMARK  211  A    between atoms: _543  and  _545
REMARK  212  A    between atoms: _545  and  _546
REMARK  213  A    between atoms: _545  and  _548
REMARK  214  A    between atoms: _548  and  _549
REMARK  215  A    between atoms: _552  and  _554
REMARK  216  A    between atoms: _554  and  _555
REMARK  217  A    between atoms: _554  and  _557
REMARK  218  A    between atoms: _557  and  _558
REMARK  219  A    between atoms: _563  and  _564
REMARK  220  A    between atoms: _566  and  _568
REMARK  221  A    between atoms: _568  and  _569
REMARK  222  A    between atoms: _568  and  _571
REMARK  223  A    between atoms: _571  and  _572
REMARK  224  A    between atoms: _575  and  _577
REMARK  225  A    between atoms: _577  and  _578
REMARK  226  A    between atoms: _577  and  _580
REMARK  227  A    between atoms: _580  and  _581
REMARK  228  A    between atoms: _581  and  _582
REMARK  229  A    between atoms: _585  and  _587
REMARK  230  A    between atoms: _587  and  _588
REMARK  231  A    between atoms: _587  and  _590
REMARK  232  A    between atoms: _590  and  _591
REMARK  233  A    between atoms: _596  and  _598
REMARK  234  A    between atoms: _598  and  _599
REMARK  235  A    between atoms: _601  and  _603
REMARK  236  A    between atoms: _603  and  _604
REMARK  237  A    between atoms: _603  and  _606
REMARK  238  A    between atoms: _606  and  _607
REMARK  239  A    between atoms: _607  and  _608
REMARK  240  A    between atoms: _610  and  _612
REMARK  241  A    between atoms: _612  and  _613
REMARK  242  A    between atoms: _612  and  _615
REMARK  243  A    between atoms: _615  and  _616
REMARK  244  A    between atoms: _619  and  _621
REMARK  245  A    between atoms: _621  and  _622
REMARK  246  A    between atoms: _621  and  _624
REMARK  247  A    between atoms: _624  and  _625
REMARK  248  A    between atoms: _635  and  _637
REMARK  249  A    between atoms: _637  and  _638
REMARK  250  A    between atoms: _637  and  _640
REMARK  251  A    between atoms: _640  and  _641
REMARK  252  A    between atoms: _643  and  _645
REMARK  253  A    between atoms: _645  and  _646
REMARK  254  A    between atoms: _645  and  _648
REMARK  255  A    between atoms: _648  and  _649
REMARK  256  A    between atoms: _654  and  _656
REMARK  257  A    between atoms: _656  and  _657
REMARK  258  A    between atoms: _656  and  _659
REMARK  259  A    between atoms: _659  and  _660
REMARK  260  A    between atoms: _666  and  _668
REMARK  261  A    between atoms: _668  and  _669
REMARK  262  A    between atoms: _668  and  _671
REMARK  263  A    between atoms: _671  and  _672
REMARK  264  A    between atoms: _672  and  _673
REMARK  265  A    between atoms: _676  and  _678
REMARK  266  A    between atoms: _678  and  _679
REMARK  267  A    between atoms: _678  and  _681
REMARK  268  A    between atoms: _681  and  _682
REMARK  269  A    between atoms: _692  and  _694
REMARK  270  A    between atoms: _694  and  _695
REMARK  271  A    between atoms: _694  and  _697
REMARK  272  A    between atoms: _697  and  _698
REMARK  273  A    between atoms: _701  and  _703
REMARK  274  A    between atoms: _703  and  _704
REMARK  275  A    between atoms: _703  and  _706
REMARK  276  A    between atoms: _706  and  _707
REMARK  277  A    between atoms: _709  and  _711
REMARK  278  A    between atoms: _711  and  _712
REMARK  279  A    between atoms: _711  and  _714
REMARK  280  A    between atoms: _714  and  _715
REMARK  281  A    between atoms: _717  and  _719
REMARK  282  A    between atoms: _719  and  _720
REMARK  283  A    between atoms: _719  and  _722
REMARK  284  A    between atoms: _722  and  _723
REMARK                            x       y       z     vdW  Elec       q    Type
REMARK                         _______ _______ _______ _____ _____    ______ ____
ROOT
ATOM      1  O   HOH     1      -6.692  -5.820  51.134  0.00  0.00    +0.000 OA
ENDROOT
TORSDOF 0
REMARK  Name = ../refined-set-2016/4qlk/4qlk_pocket.pdb
REMARK  284 active torsions:
REMARK  status: ('A' for Active; 'I' for Inactive)
REMARK    1  A    between atoms: _1  and  _3
REMARK    2  A    between atoms: _3  and  _4
REMARK    3  A    between atoms: _3  and  _6
REMARK    4  A    between atoms: _9  and  _11
REMARK    5  A    between atoms: _11  and  _12
REMARK    6  A    between atoms: _11  and  _14
REMARK    7  A    between atoms: _14  and  _15
REMARK    8  A    between atoms: _18  and  _20
REMARK    9  A    between atoms: _20  and  _21
REMARK   10  A    between atoms: _20  and  _23
REMARK   11  A    between atoms: _23  and  _24
REMARK   12  A    between atoms: _26  and  _28
REMARK   13  A    between atoms: _28  and  _29
REMARK   14  A    between atoms: _28  and  _31
REMARK   15  A    between atoms: _31  and  _32
REMARK   16  A    between atoms: _32  and  _33
REMARK   17  A    between atoms: _38  and  _40
REMARK   18  A    between atoms: _40  and  _41
REMARK   19  A    between atoms: _40  and  _43
REMARK   20  A    between atoms: _43  and  _44
REMARK   21  A    between atoms: _44  and  _45
REMARK   22  A    between atoms: _45  and  _46
REMARK   23  A    between atoms: _55  and  _57
REMARK   24  A    between atoms: _57  and  _58
REMARK   25  A    between atoms: _57  and  _60
REMARK   26  A    between atoms: _60  and  _61
REMARK   27  A    between atoms: _66  and  _68
REMARK   28  A    between atoms: _68  and  _69
REMARK   29  A    between atoms: _68  and  _71
REMARK   30  A    between atoms: _71  and  _72
REMARK   31  A    between atoms: _77  and  _78
REMARK   32  A    between atoms: _80  and  _82
REMARK   33  A    between atoms: _82  and  _83
REMARK   34  A    between atoms: _82  and  _85
REMARK   35  A    between atoms: _85  and  _86
REMARK   36  A    between atoms: _91  and  _93
REMARK   37  A    between atoms: _93  and  _94
REMARK   38  A    between atoms: _93  and  _96
REMARK   39  A    between atoms: _96  and  _97
REMARK   40  A    between atoms: _97  and  _98
REMARK   41  A    between atoms: _103  and  _105
REMARK   42  A    between atoms: _105  and  _106
REMARK   43  A    between atoms: _105  and  _108
REMARK   44  A    between atoms: _108  and  _109
REMARK   45  A    between atoms: _109  and  _110
REMARK   46  A    between atoms: _110  and  _111
REMARK   47  A    between atoms: _120  and  _122
REMARK   48  A    between atoms: _122  and  _123
REMARK   49  A    between atoms: _122  and  _125
REMARK   50  A    between atoms: _125  and  _126
REMARK   51  A    between atoms: _129  and  _131
REMARK   52  A    between atoms: _131  and  _132
REMARK   53  A    between atoms: _131  and  _134
REMARK   54  A    between atoms: _134  and  _135
REMARK   55  A    between atoms: _138  and  _140
REMARK   56  A    between atoms: _140  and  _141
REMARK   57  A    between atoms: _140  and  _143
REMARK   58  A    between atoms: _143  and  _144
REMARK   59  A    between atoms: _147  and  _149
REMARK   60  A    between atoms: _149  and  _150
REMARK   61  A    between atoms: _149  and  _152
REMARK   62  A    between atoms: _152  and  _153
REMARK   63  A    between atoms: _156  and  _158
REMARK   64  A    between atoms: _158  and  _159
REMARK   65  A    between atoms: _158  and  _161
REMARK   66  A    between atoms: _161  and  _162
REMARK   67  A    between atoms: _162  and  _163
REMARK   68  A    between atoms: _168  and  _170
REMARK   69  A    between atoms: _170  and  _171
REMARK   70  A    between atoms: _170  and  _173
REMARK   71  A    between atoms: _173  and  _174
REMARK   72  A    between atoms: _177  and  _179
REMARK   73  A    between atoms: _179  and  _180
REMARK   74  A    between atoms: _179  and  _182
REMARK   75  A    between atoms: _182  and  _183
REMARK   76  A    between atoms: _188  and  _190
REMARK   77  A    between atoms: _190  and  _191
REMARK   78  A    between atoms: _190  and  _193
REMARK   79  A    between atoms: _196  and  _198
REMARK   80  A    between atoms: _198  and  _199
REMARK   81  A    between atoms: _198  and  _201
REMARK   82  A    between atoms: _201  and  _202
REMARK   83  A    between atoms: _205  and  _207
REMARK   84  A    between atoms: _207  and  _208
REMARK   85  A    between atoms: _207  and  _210
REMARK   86  A    between atoms: _210  and  _211
REMARK   87  A    between atoms: _214  and  _216
REMARK   88  A    between atoms: _216  and  _217
REMARK   89  A    between atoms: _216  and  _219
REMARK   90  A    between atoms: _219  and  _220
REMARK   91  A    between atoms: _226  and  _228
REMARK   92  A    between atoms: _228  and  _229
REMARK   93  A    between atoms: _228  and  _231
REMARK   94  A    between atoms: _231  and  _232
REMARK   95  A    between atoms: _237  and  _239
REMARK   96  A    between atoms: _239  and  _240
REMARK   97  A    between atoms: _239  and  _242
REMARK   98  A    between atoms: _242  and  _243
REMARK   99  A    between atoms: _253  and  _255
REMARK  100  A    between atoms: _255  and  _256
REMARK  101  A    between atoms: _255  and  _258
REMARK  102  A    between atoms: _258  and  _259
REMARK  103  A    between atoms: _264  and  _265
REMARK  104  A    between atoms: _267  and  _269
REMARK  105  A    between atoms: _269  and  _270
REMARK  106  A    between atoms: _273  and  _275
REMARK  107  A    between atoms: _275  and  _276
REMARK  108  A    between atoms: _275  and  _278
REMARK  109  A    between atoms: _278  and  _279
REMARK  110  A    between atoms: _285  and  _287
REMARK  111  A    between atoms: _287  and  _288
REMARK  112  A    between atoms: _287  and  _290
REMARK  113  A    between atoms: _290  and  _291
REMARK  114  A    between atoms: _296  and  _298
REMARK  115  A    between atoms: _298  and  _299
REMARK  116  A    between atoms: _298  and  _301
REMARK  117  A    between atoms: _301  and  _302
REMARK  118  A    between atoms: _307  and  _309
REMARK  119  A    between atoms: _309  and  _310
REMARK  120  A    between atoms: _309  and  _312
REMARK  121  A    between atoms: _312  and  _313
REMARK  122  A    between atoms: _313  and  _314
REMARK  123  A    between atoms: _319  and  _321
REMARK  124  A    between atoms: _321  and  _322
REMARK  125  A    between atoms: _321  and  _324
REMARK  126  A    between atoms: _324  and  _325
REMARK  127  A    between atoms: _330  and  _331
REMARK  128  A    between atoms: _333  and  _335
REMARK  129  A    between atoms: _335  and  _336
REMARK  130  A    between atoms: _335  and  _338
REMARK  131  A    between atoms: _338  and  _339
REMARK  132  A    between atoms: _342  and  _344
REMARK  133  A    between atoms: _344  and  _345
REMARK  134  A    between atoms: _348  and  _350
REMARK  135  A    between atoms: _350  and  _351
REMARK  136  A    between atoms: _350  and  _353
REMARK  137  A    between atoms: _353  and  _354
REMARK  138  A    between atoms: _356  and  _358
REMARK  139  A    between atoms: _358  and  _359
REMARK  140  A    between atoms: _358  and  _361
REMARK  141  A    between atoms: _361  and  _362
REMARK  142  A    between atoms: _367  and  _368
REMARK  143  A    between atoms: _370  and  _372
REMARK  144  A    between atoms: _372  and  _373
REMARK  145  A    between atoms: _372  and  _375
REMARK  146  A    between atoms: _375  and  _376
REMARK  147  A    between atoms: _376  and  _377
REMARK  148  A    between atoms: _379  and  _381
REMARK  149  A    between atoms: _381  and  _382
REMARK  150  A    between atoms: _381  and  _384
REMARK  151  A    between atoms: _384  and  _385
REMARK  152  A    between atoms: _385  and  _386
REMARK  153  A    between atoms: _386  and  _387
REMARK  154  A    between atoms: _387  and  _388
REMARK  155  A    between atoms: _392  and  _394
REMARK  156  A    between atoms: _394  and  _395
REMARK  157  A    between atoms: _394  and  _397
REMARK  158  A    between atoms: _397  and  _398
REMARK  159  A    between atoms: _400  and  _402
REMARK  160  A    between atoms: _402  and  _403
REMARK  161  A    between atoms: _402  and  _405
REMARK  162  A    between atoms: _405  and  _406
REMARK  163  A    between atoms: _411  and  _412
REMARK  164  A    between atoms: _414  and  _416
REMARK  165  A    between atoms: _416  and  _417
REMARK  166  A    between atoms: _416  and  _419
REMARK  167  A    between atoms: _419  and  _420
REMARK  168  A    between atoms: _422  and  _424
REMARK  169  A    between atoms: _424  and  _425
REMARK  170  A    between atoms: _428  and  _430
REMARK  171  A    between atoms: _430  and  _431
REMARK  172  A    between atoms: _430  and  _433
REMARK  173  A    between atoms: _433  and  _434
REMARK  174  A    between atoms: _437  and  _439
REMARK  175  A    between atoms: _439  and  _440
REMARK  176  A    between atoms: _439  and  _442
REMARK  177  A    between atoms: _442  and  _443
REMARK  178  A    between atoms: _453  and  _455
REMARK  179  A    between atoms: _455  and  _456
REMARK  180  A    between atoms: _455  and  _458
REMARK  181  A    between atoms: _458  and  _459
REMARK  182  A    between atoms: _459  and  _460
REMARK  183  A    between atoms: _465  and  _467
REMARK  184  A    between atoms: _467  and  _468
REMARK  185  A    between atoms: _467  and  _470
REMARK  186  A    between atoms: _473  and  _475
REMARK  187  A    between atoms: _475  and  _476
REMARK  188  A    between atoms: _475  and  _478
REMARK  189  A    between atoms: _478  and  _479
REMARK  190  A    between atoms: _482  and  _484
REMARK  191  A    between atoms: _484  and  _485
REMARK  192  A    between atoms: _488  and  _490
REMARK  193  A    between atoms: _490  and  _491
REMARK  194  A    between atoms: _490  and  _493
REMARK  195  A    between atoms: _496  and  _498
REMARK  196  A    between atoms: _498  and  _499
REMARK  197  A    between atoms: _498  and  _501
REMARK  198  A    between atoms: _501  and  _502
REMARK  199  A    between atoms: _508  and  _510
REMARK  200  A    between atoms: _510  and  _511
REMARK  201  A    between atoms: _510  and  _513
REMARK  202  A    between atoms: _513  and  _514
REMARK  203  A    between atoms: _516  and  _518
REMARK  204  A    between atoms: _518  and  _519
REMARK  205  A    between atoms: _518  and  _521
REMARK  206  A    between atoms: _521  and  _522
REMARK  207  A    between atoms: _527  and  _529
REMARK  208  A    between atoms: _529  and  _530
REMARK  209  A    between atoms: _529  and  _532
REMARK  210  A    between atoms: _532  and  _533
REMARK  211  A    between atoms: _543  and  _545
REMARK  212  A    between atoms: _545  and  _546
REMARK  213  A    between atoms: _545  and  _548
REMARK  214  A    between atoms: _548  and  _549
REMARK  215  A    between atoms: _552  and  _554
REMARK  216  A    between atoms: _554  and  _555
REMARK  217  A    between atoms: _554  and  _557
REMARK  218  A    between atoms: _557  and  _558
REMARK  219  A    between atoms: _563  and  _564
REMARK  220  A    between atoms: _566  and  _568
REMARK  221  A    between atoms: _568  and  _569
REMARK  222  A    between atoms: _568  and  _571
REMARK  223  A    between atoms: _571  and  _572
REMARK  224  A    between atoms: _575  and  _577
REMARK  225  A    between atoms: _577  and  _578
REMARK  226  A    between atoms: _577  and  _580
REMARK  227  A    between atoms: _580  and  _581
REMARK  228  A    between atoms: _581  and  _582
REMARK  229  A    between atoms: _585  and  _587
REMARK  230  A    between atoms: _587  and  _588
REMARK  231  A    between atoms: _587  and  _590
REMARK  232  A    between atoms: _590  and  _591
REMARK  233  A    between atoms: _596  and  _598
REMARK  234  A    between atoms: _598  and  _599
REMARK  235  A    between atoms: _601  and  _603
REMARK  236  A    between atoms: _603  and  _604
REMARK  237  A    between atoms: _603  and  _606
REMARK  238  A    between atoms: _606  and  _607
REMARK  239  A    between atoms: _607  and  _608
REMARK  240  A    between atoms: _610  and  _612
REMARK  241  A    between atoms: _612  and  _613
REMARK  242  A    between atoms: _612  and  _615
REMARK  243  A    between atoms: _615  and  _616
REMARK  244  A    between atoms: _619  and  _621
REMARK  245  A    between atoms: _621  and  _622
REMARK  246  A    between atoms: _621  and  _624
REMARK  247  A    between atoms: _624  and  _625
REMARK  248  A    between atoms: _635  and  _637
REMARK  249  A    between atoms: _637  and  _638
REMARK  250  A    between atoms: _637  and  _640
REMARK  251  A    between atoms: _640  and  _641
REMARK  252  A    between atoms: _643  and  _645
REMARK  253  A    between atoms: _645  and  _646
REMARK  254  A    between atoms: _645  and  _648
REMARK  255  A    between atoms: _648  and  _649
REMARK  256  A    between atoms: _654  and  _656
REMARK  257  A    between atoms: _656  and  _657
REMARK  258  A    between atoms: _656  and  _659
REMARK  259  A    between atoms: _659  and  _660
REMARK  260  A    between atoms: _666  and  _668
REMARK  261  A    between atoms: _668  and  _669
REMARK  262  A    between atoms: _668  and  _671
REMARK  263  A    between atoms: _671  and  _672
REMARK  264  A    between atoms: _672  and  _673
REMARK  265  A    between atoms: _676  and  _678
REMARK  266  A    between atoms: _678  and  _679
REMARK  267  A    between atoms: _678  and  _681
REMARK  268  A    between atoms: _681  and  _682
REMARK  269  A    between atoms: _692  and  _694
REMARK  270  A    between atoms: _694  and  _695
REMARK  271  A    between atoms: _694  and  _697
REMARK  272  A    between atoms: _697  and  _698
REMARK  273  A    between atoms: _701  and  _703
REMARK  274  A    between atoms: _703  and  _704
REMARK  275  A    between atoms: _703  and  _706
REMARK  276  A    between atoms: _706  and  _707
REMARK  277  A    between atoms: _709  and  _711
REMARK  278  A    between atoms: _711  and  _712
REMARK  279  A    between atoms: _711  and  _714
REMARK  280  A    between atoms: _714  and  _715
REMARK  281  A    between atoms: _717  and  _719
REMARK  282  A    between atoms: _719  and  _720
REMARK  283  A    between atoms: _719  and  _722
REMARK  284  A    between atoms: _722  and  _723
REMARK                            x       y       z     vdW  Elec       q    Type
REMARK                         _______ _______ _______ _____ _____    ______ ____
ROOT
ATOM      1  O   HOH     1     -10.043   3.431  48.105  0.00  0.00    +0.000 OA
ENDROOT
TORSDOF 0
REMARK  Name = ../refined-set-2016/4qlk/4qlk_pocket.pdb
REMARK  284 active torsions:
REMARK  status: ('A' for Active; 'I' for Inactive)
REMARK    1  A    between atoms: _1  and  _3
REMARK    2  A    between atoms: _3  and  _4
REMARK    3  A    between atoms: _3  and  _6
REMARK    4  A    between atoms: _9  and  _11
REMARK    5  A    between atoms: _11  and  _12
REMARK    6  A    between atoms: _11  and  _14
REMARK    7  A    between atoms: _14  and  _15
REMARK    8  A    between atoms: _18  and  _20
REMARK    9  A    between atoms: _20  and  _21
REMARK   10  A    between atoms: _20  and  _23
REMARK   11  A    between atoms: _23  and  _24
REMARK   12  A    between atoms: _26  and  _28
REMARK   13  A    between atoms: _28  and  _29
REMARK   14  A    between atoms: _28  and  _31
REMARK   15  A    between atoms: _31  and  _32
REMARK   16  A    between atoms: _32  and  _33
REMARK   17  A    between atoms: _38  and  _40
REMARK   18  A    between atoms: _40  and  _41
REMARK   19  A    between atoms: _40  and  _43
REMARK   20  A    between atoms: _43  and  _44
REMARK   21  A    between atoms: _44  and  _45
REMARK   22  A    between atoms: _45  and  _46
REMARK   23  A    between atoms: _55  and  _57
REMARK   24  A    between atoms: _57  and  _58
REMARK   25  A    between atoms: _57  and  _60
REMARK   26  A    between atoms: _60  and  _61
REMARK   27  A    between atoms: _66  and  _68
REMARK   28  A    between atoms: _68  and  _69
REMARK   29  A    between atoms: _68  and  _71
REMARK   30  A    between atoms: _71  and  _72
REMARK   31  A    between atoms: _77  and  _78
REMARK   32  A    between atoms: _80  and  _82
REMARK   33  A    between atoms: _82  and  _83
REMARK   34  A    between atoms: _82  and  _85
REMARK   35  A    between atoms: _85  and  _86
REMARK   36  A    between atoms: _91  and  _93
REMARK   37  A    between atoms: _93  and  _94
REMARK   38  A    between atoms: _93  and  _96
REMARK   39  A    between atoms: _96  and  _97
REMARK   40  A    between atoms: _97  and  _98
REMARK   41  A    between atoms: _103  and  _105
REMARK   42  A    between atoms: _105  and  _106
REMARK   43  A    between atoms: _105  and  _108
REMARK   44  A    between atoms: _108  and  _109
REMARK   45  A    between atoms: _109  and  _110
REMARK   46  A    between atoms: _110  and  _111
REMARK   47  A    between atoms: _120  and  _122
REMARK   48  A    between atoms: _122  and  _123
REMARK   49  A    between atoms: _122  and  _125
REMARK   50  A    between atoms: _125  and  _126
REMARK   51  A    between atoms: _129  and  _131
REMARK   52  A    between atoms: _131  and  _132
REMARK   53  A    between atoms: _131  and  _134
REMARK   54  A    between atoms: _134  and  _135
REMARK   55  A    between atoms: _138  and  _140
REMARK   56  A    between atoms: _140  and  _141
REMARK   57  A    between atoms: _140  and  _143
REMARK   58  A    between atoms: _143  and  _144
REMARK   59  A    between atoms: _147  and  _149
REMARK   60  A    between atoms: _149  and  _150
REMARK   61  A    between atoms: _149  and  _152
REMARK   62  A    between atoms: _152  and  _153
REMARK   63  A    between atoms: _156  and  _158
REMARK   64  A    between atoms: _158  and  _159
REMARK   65  A    between atoms: _158  and  _161
REMARK   66  A    between atoms: _161  and  _162
REMARK   67  A    between atoms: _162  and  _163
REMARK   68  A    between atoms: _168  and  _170
REMARK   69  A    between atoms: _170  and  _171
REMARK   70  A    between atoms: _170  and  _173
REMARK   71  A    between atoms: _173  and  _174
REMARK   72  A    between atoms: _177  and  _179
REMARK   73  A    between atoms: _179  and  _180
REMARK   74  A    between atoms: _179  and  _182
REMARK   75  A    between atoms: _182  and  _183
REMARK   76  A    between atoms: _188  and  _190
REMARK   77  A    between atoms: _190  and  _191
REMARK   78  A    between atoms: _190  and  _193
REMARK   79  A    between atoms: _196  and  _198
REMARK   80  A    between atoms: _198  and  _199
REMARK   81  A    between atoms: _198  and  _201
REMARK   82  A    between atoms: _201  and  _202
REMARK   83  A    between atoms: _205  and  _207
REMARK   84  A    between atoms: _207  and  _208
REMARK   85  A    between atoms: _207  and  _210
REMARK   86  A    between atoms: _210  and  _211
REMARK   87  A    between atoms: _214  and  _216
REMARK   88  A    between atoms: _216  and  _217
REMARK   89  A    between atoms: _216  and  _219
REMARK   90  A    between atoms: _219  and  _220
REMARK   91  A    between atoms: _226  and  _228
REMARK   92  A    between atoms: _228  and  _229
REMARK   93  A    between atoms: _228  and  _231
REMARK   94  A    between atoms: _231  and  _232
REMARK   95  A    between atoms: _237  and  _239
REMARK   96  A    between atoms: _239  and  _240
REMARK   97  A    between atoms: _239  and  _242
REMARK   98  A    between atoms: _242  and  _243
REMARK   99  A    between atoms: _253  and  _255
REMARK  100  A    between atoms: _255  and  _256
REMARK  101  A    between atoms: _255  and  _258
REMARK  102  A    between atoms: _258  and  _259
REMARK  103  A    between atoms: _264  and  _265
REMARK  104  A    between atoms: _267  and  _269
REMARK  105  A    between atoms: _269  and  _270
REMARK  106  A    between atoms: _273  and  _275
REMARK  107  A    between atoms: _275  and  _276
REMARK  108  A    between atoms: _275  and  _278
REMARK  109  A    between atoms: _278  and  _279
REMARK  110  A    between atoms: _285  and  _287
REMARK  111  A    between atoms: _287  and  _288
REMARK  112  A    between atoms: _287  and  _290
REMARK  113  A    between atoms: _290  and  _291
REMARK  114  A    between atoms: _296  and  _298
REMARK  115  A    between atoms: _298  and  _299
REMARK  116  A    between atoms: _298  and  _301
REMARK  117  A    between atoms: _301  and  _302
REMARK  118  A    between atoms: _307  and  _309
REMARK  119  A    between atoms: _309  and  _310
REMARK  120  A    between atoms: _309  and  _312
REMARK  121  A    between atoms: _312  and  _313
REMARK  122  A    between atoms: _313  and  _314
REMARK  123  A    between atoms: _319  and  _321
REMARK  124  A    between atoms: _321  and  _322
REMARK  125  A    between atoms: _321  and  _324
REMARK  126  A    between atoms: _324  and  _325
REMARK  127  A    between atoms: _330  and  _331
REMARK  128  A    between atoms: _333  and  _335
REMARK  129  A    between atoms: _335  and  _336
REMARK  130  A    between atoms: _335  and  _338
REMARK  131  A    between atoms: _338  and  _339
REMARK  132  A    between atoms: _342  and  _344
REMARK  133  A    between atoms: _344  and  _345
REMARK  134  A    between atoms: _348  and  _350
REMARK  135  A    between atoms: _350  and  _351
REMARK  136  A    between atoms: _350  and  _353
REMARK  137  A    between atoms: _353  and  _354
REMARK  138  A    between atoms: _356  and  _358
REMARK  139  A    between atoms: _358  and  _359
REMARK  140  A    between atoms: _358  and  _361
REMARK  141  A    between atoms: _361  and  _362
REMARK  142  A    between atoms: _367  and  _368
REMARK  143  A    between atoms: _370  and  _372
REMARK  144  A    between atoms: _372  and  _373
REMARK  145  A    between atoms: _372  and  _375
REMARK  146  A    between atoms: _375  and  _376
REMARK  147  A    between atoms: _376  and  _377
REMARK  148  A    between atoms: _379  and  _381
REMARK  149  A    between atoms: _381  and  _382
REMARK  150  A    between atoms: _381  and  _384
REMARK  151  A    between atoms: _384  and  _385
REMARK  152  A    between atoms: _385  and  _386
REMARK  153  A    between atoms: _386  and  _387
REMARK  154  A    between atoms: _387  and  _388
REMARK  155  A    between atoms: _392  and  _394
REMARK  156  A    between atoms: _394  and  _395
REMARK  157  A    between atoms: _394  and  _397
REMARK  158  A    between atoms: _397  and  _398
REMARK  159  A    between atoms: _400  and  _402
REMARK  160  A    between atoms: _402  and  _403
REMARK  161  A    between atoms: _402  and  _405
REMARK  162  A    between atoms: _405  and  _406
REMARK  163  A    between atoms: _411  and  _412
REMARK  164  A    between atoms: _414  and  _416
REMARK  165  A    between atoms: _416  and  _417
REMARK  166  A    between atoms: _416  and  _419
REMARK  167  A    between atoms: _419  and  _420
REMARK  168  A    between atoms: _422  and  _424
REMARK  169  A    between atoms: _424  and  _425
REMARK  170  A    between atoms: _428  and  _430
REMARK  171  A    between atoms: _430  and  _431
REMARK  172  A    between atoms: _430  and  _433
REMARK  173  A    between atoms: _433  and  _434
REMARK  174  A    between atoms: _437  and  _439
REMARK  175  A    between atoms: _439  and  _440
REMARK  176  A    between atoms: _439  and  _442
REMARK  177  A    between atoms: _442  and  _443
REMARK  178  A    between atoms: _453  and  _455
REMARK  179  A    between atoms: _455  and  _456
REMARK  180  A    between atoms: _455  and  _458
REMARK  181  A    between atoms: _458  and  _459
REMARK  182  A    between atoms: _459  and  _460
REMARK  183  A    between atoms: _465  and  _467
REMARK  184  A    between atoms: _467  and  _468
REMARK  185  A    between atoms: _467  and  _470
REMARK  186  A    between atoms: _473  and  _475
REMARK  187  A    between atoms: _475  and  _476
REMARK  188  A    between atoms: _475  and  _478
REMARK  189  A    between atoms: _478  and  _479
REMARK  190  A    between atoms: _482  and  _484
REMARK  191  A    between atoms: _484  and  _485
REMARK  192  A    between atoms: _488  and  _490
REMARK  193  A    between atoms: _490  and  _491
REMARK  194  A    between atoms: _490  and  _493
REMARK  195  A    between atoms: _496  and  _498
REMARK  196  A    between atoms: _498  and  _499
REMARK  197  A    between atoms: _498  and  _501
REMARK  198  A    between atoms: _501  and  _502
REMARK  199  A    between atoms: _508  and  _510
REMARK  200  A    between atoms: _510  and  _511
REMARK  201  A    between atoms: _510  and  _513
REMARK  202  A    between atoms: _513  and  _514
REMARK  203  A    between atoms: _516  and  _518
REMARK  204  A    between atoms: _518  and  _519
REMARK  205  A    between atoms: _518  and  _521
REMARK  206  A    between atoms: _521  and  _522
REMARK  207  A    between atoms: _527  and  _529
REMARK  208  A    between atoms: _529  and  _530
REMARK  209  A    between atoms: _529  and  _532
REMARK  210  A    between atoms: _532  and  _533
REMARK  211  A    between atoms: _543  and  _545
REMARK  212  A    between atoms: _545  and  _546
REMARK  213  A    between atoms: _545  and  _548
REMARK  214  A    between atoms: _548  and  _549
REMARK  215  A    between atoms: _552  and  _554
REMARK  216  A    between atoms: _554  and  _555
REMARK  217  A    between atoms: _554  and  _557
REMARK  218  A    between atoms: _557  and  _558
REMARK  219  A    between atoms: _563  and  _564
REMARK  220  A    between atoms: _566  and  _568
REMARK  221  A    between atoms: _568  and  _569
REMARK  222  A    between atoms: _568  and  _571
REMARK  223  A    between atoms: _571  and  _572
REMARK  224  A    between atoms: _575  and  _577
REMARK  225  A    between atoms: _577  and  _578
REMARK  226  A    between atoms: _577  and  _580
REMARK  227  A    between atoms: _580  and  _581
REMARK  228  A    between atoms: _581  and  _582
REMARK  229  A    between atoms: _585  and  _587
REMARK  230  A    between atoms: _587  and  _588
REMARK  231  A    between atoms: _587  and  _590
REMARK  232  A    between atoms: _590  and  _591
REMARK  233  A    between atoms: _596  and  _598
REMARK  234  A    between atoms: _598  and  _599
REMARK  235  A    between atoms: _601  and  _603
REMARK  236  A    between atoms: _603  and  _604
REMARK  237  A    between atoms: _603  and  _606
REMARK  238  A    between atoms: _606  and  _607
REMARK  239  A    between atoms: _607  and  _608
REMARK  240  A    between atoms: _610  and  _612
REMARK  241  A    between atoms: _612  and  _613
REMARK  242  A    between atoms: _612  and  _615
REMARK  243  A    between atoms: _615  and  _616
REMARK  244  A    between atoms: _619  and  _621
REMARK  245  A    between atoms: _621  and  _622
REMARK  246  A    between atoms: _621  and  _624
REMARK  247  A    between atoms: _624  and  _625
REMARK  248  A    between atoms: _635  and  _637
REMARK  249  A    between atoms: _637  and  _638
REMARK  250  A    between atoms: _637  and  _640
REMARK  251  A    between atoms: _640  and  _641
REMARK  252  A    between atoms: _643  and  _645
REMARK  253  A    between atoms: _645  and  _646
REMARK  254  A    between atoms: _645  and  _648
REMARK  255  A    between atoms: _648  and  _649
REMARK  256  A    between atoms: _654  and  _656
REMARK  257  A    between atoms: _656  and  _657
REMARK  258  A    between atoms: _656  and  _659
REMARK  259  A    between atoms: _659  and  _660
REMARK  260  A    between atoms: _666  and  _668
REMARK  261  A    between atoms: _668  and  _669
REMARK  262  A    between atoms: _668  and  _671
REMARK  263  A    between atoms: _671  and  _672
REMARK  264  A    between atoms: _672  and  _673
REMARK  265  A    between atoms: _676  and  _678
REMARK  266  A    between atoms: _678  and  _679
REMARK  267  A    between atoms: _678  and  _681
REMARK  268  A    between atoms: _681  and  _682
REMARK  269  A    between atoms: _692  and  _694
REMARK  270  A    between atoms: _694  and  _695
REMARK  271  A    between atoms: _694  and  _697
REMARK  272  A    between atoms: _697  and  _698
REMARK  273  A    between atoms: _701  and  _703
REMARK  274  A    between atoms: _703  and  _704
REMARK  275  A    between atoms: _703  and  _706
REMARK  276  A    between atoms: _706  and  _707
REMARK  277  A    between atoms: _709  and  _711
REMARK  278  A    between atoms: _711  and  _712
REMARK  279  A    between atoms: _711  and  _714
REMARK  280  A    between atoms: _714  and  _715
REMARK  281  A    between atoms: _717  and  _719
REMARK  282  A    between atoms: _719  and  _720
REMARK  283  A    between atoms: _719  and  _722
REMARK  284  A    between atoms: _722  and  _723
REMARK                            x       y       z     vdW  Elec       q    Type
REMARK                         _______ _______ _______ _____ _____    ______ ____
ROOT
ATOM      1  O   HOH     1      -1.092  -5.876  35.393  0.00  0.00    +0.000 OA
ENDROOT
TORSDOF 0
REMARK  Name = ../refined-set-2016/4qlk/4qlk_pocket.pdb
REMARK  284 active torsions:
REMARK  status: ('A' for Active; 'I' for Inactive)
REMARK    1  A    between atoms: _1  and  _3
REMARK    2  A    between atoms: _3  and  _4
REMARK    3  A    between atoms: _3  and  _6
REMARK    4  A    between atoms: _9  and  _11
REMARK    5  A    between atoms: _11  and  _12
REMARK    6  A    between atoms: _11  and  _14
REMARK    7  A    between atoms: _14  and  _15
REMARK    8  A    between atoms: _18  and  _20
REMARK    9  A    between atoms: _20  and  _21
REMARK   10  A    between atoms: _20  and  _23
REMARK   11  A    between atoms: _23  and  _24
REMARK   12  A    between atoms: _26  and  _28
REMARK   13  A    between atoms: _28  and  _29
REMARK   14  A    between atoms: _28  and  _31
REMARK   15  A    between atoms: _31  and  _32
REMARK   16  A    between atoms: _32  and  _33
REMARK   17  A    between atoms: _38  and  _40
REMARK   18  A    between atoms: _40  and  _41
REMARK   19  A    between atoms: _40  and  _43
REMARK   20  A    between atoms: _43  and  _44
REMARK   21  A    between atoms: _44  and  _45
REMARK   22  A    between atoms: _45  and  _46
REMARK   23  A    between atoms: _55  and  _57
REMARK   24  A    between atoms: _57  and  _58
REMARK   25  A    between atoms: _57  and  _60
REMARK   26  A    between atoms: _60  and  _61
REMARK   27  A    between atoms: _66  and  _68
REMARK   28  A    between atoms: _68  and  _69
REMARK   29  A    between atoms: _68  and  _71
REMARK   30  A    between atoms: _71  and  _72
REMARK   31  A    between atoms: _77  and  _78
REMARK   32  A    between atoms: _80  and  _82
REMARK   33  A    between atoms: _82  and  _83
REMARK   34  A    between atoms: _82  and  _85
REMARK   35  A    between atoms: _85  and  _86
REMARK   36  A    between atoms: _91  and  _93
REMARK   37  A    between atoms: _93  and  _94
REMARK   38  A    between atoms: _93  and  _96
REMARK   39  A    between atoms: _96  and  _97
REMARK   40  A    between atoms: _97  and  _98
REMARK   41  A    between atoms: _103  and  _105
REMARK   42  A    between atoms: _105  and  _106
REMARK   43  A    between atoms: _105  and  _108
REMARK   44  A    between atoms: _108  and  _109
REMARK   45  A    between atoms: _109  and  _110
REMARK   46  A    between atoms: _110  and  _111
REMARK   47  A    between atoms: _120  and  _122
REMARK   48  A    between atoms: _122  and  _123
REMARK   49  A    between atoms: _122  and  _125
REMARK   50  A    between atoms: _125  and  _126
REMARK   51  A    between atoms: _129  and  _131
REMARK   52  A    between atoms: _131  and  _132
REMARK   53  A    between atoms: _131  and  _134
REMARK   54  A    between atoms: _134  and  _135
REMARK   55  A    between atoms: _138  and  _140
REMARK   56  A    between atoms: _140  and  _141
REMARK   57  A    between atoms: _140  and  _143
REMARK   58  A    between atoms: _143  and  _144
REMARK   59  A    between atoms: _147  and  _149
REMARK   60  A    between atoms: _149  and  _150
REMARK   61  A    between atoms: _149  and  _152
REMARK   62  A    between atoms: _152  and  _153
REMARK   63  A    between atoms: _156  and  _158
REMARK   64  A    between atoms: _158  and  _159
REMARK   65  A    between atoms: _158  and  _161
REMARK   66  A    between atoms: _161  and  _162
REMARK   67  A    between atoms: _162  and  _163
REMARK   68  A    between atoms: _168  and  _170
REMARK   69  A    between atoms: _170  and  _171
REMARK   70  A    between atoms: _170  and  _173
REMARK   71  A    between atoms: _173  and  _174
REMARK   72  A    between atoms: _177  and  _179
REMARK   73  A    between atoms: _179  and  _180
REMARK   74  A    between atoms: _179  and  _182
REMARK   75  A    between atoms: _182  and  _183
REMARK   76  A    between atoms: _188  and  _190
REMARK   77  A    between atoms: _190  and  _191
REMARK   78  A    between atoms: _190  and  _193
REMARK   79  A    between atoms: _196  and  _198
REMARK   80  A    between atoms: _198  and  _199
REMARK   81  A    between atoms: _198  and  _201
REMARK   82  A    between atoms: _201  and  _202
REMARK   83  A    between atoms: _205  and  _207
REMARK   84  A    between atoms: _207  and  _208
REMARK   85  A    between atoms: _207  and  _210
REMARK   86  A    between atoms: _210  and  _211
REMARK   87  A    between atoms: _214  and  _216
REMARK   88  A    between atoms: _216  and  _217
REMARK   89  A    between atoms: _216  and  _219
REMARK   90  A    between atoms: _219  and  _220
REMARK   91  A    between atoms: _226  and  _228
REMARK   92  A    between atoms: _228  and  _229
REMARK   93  A    between atoms: _228  and  _231
REMARK   94  A    between atoms: _231  and  _232
REMARK   95  A    between atoms: _237  and  _239
REMARK   96  A    between atoms: _239  and  _240
REMARK   97  A    between atoms: _239  and  _242
REMARK   98  A    between atoms: _242  and  _243
REMARK   99  A    between atoms: _253  and  _255
REMARK  100  A    between atoms: _255  and  _256
REMARK  101  A    between atoms: _255  and  _258
REMARK  102  A    between atoms: _258  and  _259
REMARK  103  A    between atoms: _264  and  _265
REMARK  104  A    between atoms: _267  and  _269
REMARK  105  A    between atoms: _269  and  _270
REMARK  106  A    between atoms: _273  and  _275
REMARK  107  A    between atoms: _275  and  _276
REMARK  108  A    between atoms: _275  and  _278
REMARK  109  A    between atoms: _278  and  _279
REMARK  110  A    between atoms: _285  and  _287
REMARK  111  A    between atoms: _287  and  _288
REMARK  112  A    between atoms: _287  and  _290
REMARK  113  A    between atoms: _290  and  _291
REMARK  114  A    between atoms: _296  and  _298
REMARK  115  A    between atoms: _298  and  _299
REMARK  116  A    between atoms: _298  and  _301
REMARK  117  A    between atoms: _301  and  _302
REMARK  118  A    between atoms: _307  and  _309
REMARK  119  A    between atoms: _309  and  _310
REMARK  120  A    between atoms: _309  and  _312
REMARK  121  A    between atoms: _312  and  _313
REMARK  122  A    between atoms: _313  and  _314
REMARK  123  A    between atoms: _319  and  _321
REMARK  124  A    between atoms: _321  and  _322
REMARK  125  A    between atoms: _321  and  _324
REMARK  126  A    between atoms: _324  and  _325
REMARK  127  A    between atoms: _330  and  _331
REMARK  128  A    between atoms: _333  and  _335
REMARK  129  A    between atoms: _335  and  _336
REMARK  130  A    between atoms: _335  and  _338
REMARK  131  A    between atoms: _338  and  _339
REMARK  132  A    between atoms: _342  and  _344
REMARK  133  A    between atoms: _344  and  _345
REMARK  134  A    between atoms: _348  and  _350
REMARK  135  A    between atoms: _350  and  _351
REMARK  136  A    between atoms: _350  and  _353
REMARK  137  A    between atoms: _353  and  _354
REMARK  138  A    between atoms: _356  and  _358
REMARK  139  A    between atoms: _358  and  _359
REMARK  140  A    between atoms: _358  and  _361
REMARK  141  A    between atoms: _361  and  _362
REMARK  142  A    between atoms: _367  and  _368
REMARK  143  A    between atoms: _370  and  _372
REMARK  144  A    between atoms: _372  and  _373
REMARK  145  A    between atoms: _372  and  _375
REMARK  146  A    between atoms: _375  and  _376
REMARK  147  A    between atoms: _376  and  _377
REMARK  148  A    between atoms: _379  and  _381
REMARK  149  A    between atoms: _381  and  _382
REMARK  150  A    between atoms: _381  and  _384
REMARK  151  A    between atoms: _384  and  _385
REMARK  152  A    between atoms: _385  and  _386
REMARK  153  A    between atoms: _386  and  _387
REMARK  154  A    between atoms: _387  and  _388
REMARK  155  A    between atoms: _392  and  _394
REMARK  156  A    between atoms: _394  and  _395
REMARK  157  A    between atoms: _394  and  _397
REMARK  158  A    between atoms: _397  and  _398
REMARK  159  A    between atoms: _400  and  _402
REMARK  160  A    between atoms: _402  and  _403
REMARK  161  A    between atoms: _402  and  _405
REMARK  162  A    between atoms: _405  and  _406
REMARK  163  A    between atoms: _411  and  _412
REMARK  164  A    between atoms: _414  and  _416
REMARK  165  A    between atoms: _416  and  _417
REMARK  166  A    between atoms: _416  and  _419
REMARK  167  A    between atoms: _419  and  _420
REMARK  168  A    between atoms: _422  and  _424
REMARK  169  A    between atoms: _424  and  _425
REMARK  170  A    between atoms: _428  and  _430
REMARK  171  A    between atoms: _430  and  _431
REMARK  172  A    between atoms: _430  and  _433
REMARK  173  A    between atoms: _433  and  _434
REMARK  174  A    between atoms: _437  and  _439
REMARK  175  A    between atoms: _439  and  _440
REMARK  176  A    between atoms: _439  and  _442
REMARK  177  A    between atoms: _442  and  _443
REMARK  178  A    between atoms: _453  and  _455
REMARK  179  A    between atoms: _455  and  _456
REMARK  180  A    between atoms: _455  and  _458
REMARK  181  A    between atoms: _458  and  _459
REMARK  182  A    between atoms: _459  and  _460
REMARK  183  A    between atoms: _465  and  _467
REMARK  184  A    between atoms: _467  and  _468
REMARK  185  A    between atoms: _467  and  _470
REMARK  186  A    between atoms: _473  and  _475
REMARK  187  A    between atoms: _475  and  _476
REMARK  188  A    between atoms: _475  and  _478
REMARK  189  A    between atoms: _478  and  _479
REMARK  190  A    between atoms: _482  and  _484
REMARK  191  A    between atoms: _484  and  _485
REMARK  192  A    between atoms: _488  and  _490
REMARK  193  A    between atoms: _490  and  _491
REMARK  194  A    between atoms: _490  and  _493
REMARK  195  A    between atoms: _496  and  _498
REMARK  196  A    between atoms: _498  and  _499
REMARK  197  A    between atoms: _498  and  _501
REMARK  198  A    between atoms: _501  and  _502
REMARK  199  A    between atoms: _508  and  _510
REMARK  200  A    between atoms: _510  and  _511
REMARK  201  A    between atoms: _510  and  _513
REMARK  202  A    between atoms: _513  and  _514
REMARK  203  A    between atoms: _516  and  _518
REMARK  204  A    between atoms: _518  and  _519
REMARK  205  A    between atoms: _518  and  _521
REMARK  206  A    between atoms: _521  and  _522
REMARK  207  A    between atoms: _527  and  _529
REMARK  208  A    between atoms: _529  and  _530
REMARK  209  A    between atoms: _529  and  _532
REMARK  210  A    between atoms: _532  and  _533
REMARK  211  A    between atoms: _543  and  _545
REMARK  212  A    between atoms: _545  and  _546
REMARK  213  A    between atoms: _545  and  _548
REMARK  214  A    between atoms: _548  and  _549
REMARK  215  A    between atoms: _552  and  _554
REMARK  216  A    between atoms: _554  and  _555
REMARK  217  A    between atoms: _554  and  _557
REMARK  218  A    between atoms: _557  and  _558
REMARK  219  A    between atoms: _563  and  _564
REMARK  220  A    between atoms: _566  and  _568
REMARK  221  A    between atoms: _568  and  _569
REMARK  222  A    between atoms: _568  and  _571
REMARK  223  A    between atoms: _571  and  _572
REMARK  224  A    between atoms: _575  and  _577
REMARK  225  A    between atoms: _577  and  _578
REMARK  226  A    between atoms: _577  and  _580
REMARK  227  A    between atoms: _580  and  _581
REMARK  228  A    between atoms: _581  and  _582
REMARK  229  A    between atoms: _585  and  _587
REMARK  230  A    between atoms: _587  and  _588
REMARK  231  A    between atoms: _587  and  _590
REMARK  232  A    between atoms: _590  and  _591
REMARK  233  A    between atoms: _596  and  _598
REMARK  234  A    between atoms: _598  and  _599
REMARK  235  A    between atoms: _601  and  _603
REMARK  236  A    between atoms: _603  and  _604
REMARK  237  A    between atoms: _603  and  _606
REMARK  238  A    between atoms: _606  and  _607
REMARK  239  A    between atoms: _607  and  _608
REMARK  240  A    between atoms: _610  and  _612
REMARK  241  A    between atoms: _612  and  _613
REMARK  242  A    between atoms: _612  and  _615
REMARK  243  A    between atoms: _615  and  _616
REMARK  244  A    between atoms: _619  and  _621
REMARK  245  A    between atoms: _621  and  _622
REMARK  246  A    between atoms: _621  and  _624
REMARK  247  A    between atoms: _624  and  _625
REMARK  248  A    between atoms: _635  and  _637
REMARK  249  A    between atoms: _637  and  _638
REMARK  250  A    between atoms: _637  and  _640
REMARK  251  A    between atoms: _640  and  _641
REMARK  252  A    between atoms: _643  and  _645
REMARK  253  A    between atoms: _645  and  _646
REMARK  254  A    between atoms: _645  and  _648
REMARK  255  A    between atoms: _648  and  _649
REMARK  256  A    between atoms: _654  and  _656
REMARK  257  A    between atoms: _656  and  _657
REMARK  258  A    between atoms: _656  and  _659
REMARK  259  A    between atoms: _659  and  _660
REMARK  260  A    between atoms: _666  and  _668
REMARK  261  A    between atoms: _668  and  _669
REMARK  262  A    between atoms: _668  and  _671
REMARK  263  A    between atoms: _671  and  _672
REMARK  264  A    between atoms: _672  and  _673
REMARK  265  A    between atoms: _676  and  _678
REMARK  266  A    between atoms: _678  and  _679
REMARK  267  A    between atoms: _678  and  _681
REMARK  268  A    between atoms: _681  and  _682
REMARK  269  A    between atoms: _692  and  _694
REMARK  270  A    between atoms: _694  and  _695
REMARK  271  A    between atoms: _694  and  _697
REMARK  272  A    between atoms: _697  and  _698
REMARK  273  A    between atoms: _701  and  _703
REMARK  274  A    between atoms: _703  and  _704
REMARK  275  A    between atoms: _703  and  _706
REMARK  276  A    between atoms: _706  and  _707
REMARK  277  A    between atoms: _709  and  _711
REMARK  278  A    between atoms: _711  and  _712
REMARK  279  A    between atoms: _711  and  _714
REMARK  280  A    between atoms: _714  and  _715
REMARK  281  A    between atoms: _717  and  _719
REMARK  282  A    between atoms: _719  and  _720
REMARK  283  A    between atoms: _719  and  _722
REMARK  284  A    between atoms: _722  and  _723
REMARK                            x       y       z     vdW  Elec       q    Type
REMARK                         _______ _______ _______ _____ _____    ______ ____
ROOT
ATOM      1  O   HOH     1      -4.815  -0.942  55.935  0.00  0.00    +0.000 OA
ENDROOT
TORSDOF 0
REMARK  Name = ../refined-set-2016/4qlk/4qlk_pocket.pdb
REMARK  284 active torsions:
REMARK  status: ('A' for Active; 'I' for Inactive)
REMARK    1  A    between atoms: _1  and  _3
REMARK    2  A    between atoms: _3  and  _4
REMARK    3  A    between atoms: _3  and  _6
REMARK    4  A    between atoms: _9  and  _11
REMARK    5  A    between atoms: _11  and  _12
REMARK    6  A    between atoms: _11  and  _14
REMARK    7  A    between atoms: _14  and  _15
REMARK    8  A    between atoms: _18  and  _20
REMARK    9  A    between atoms: _20  and  _21
REMARK   10  A    between atoms: _20  and  _23
REMARK   11  A    between atoms: _23  and  _24
REMARK   12  A    between atoms: _26  and  _28
REMARK   13  A    between atoms: _28  and  _29
REMARK   14  A    between atoms: _28  and  _31
REMARK   15  A    between atoms: _31  and  _32
REMARK   16  A    between atoms: _32  and  _33
REMARK   17  A    between atoms: _38  and  _40
REMARK   18  A    between atoms: _40  and  _41
REMARK   19  A    between atoms: _40  and  _43
REMARK   20  A    between atoms: _43  and  _44
REMARK   21  A    between atoms: _44  and  _45
REMARK   22  A    between atoms: _45  and  _46
REMARK   23  A    between atoms: _55  and  _57
REMARK   24  A    between atoms: _57  and  _58
REMARK   25  A    between atoms: _57  and  _60
REMARK   26  A    between atoms: _60  and  _61
REMARK   27  A    between atoms: _66  and  _68
REMARK   28  A    between atoms: _68  and  _69
REMARK   29  A    between atoms: _68  and  _71
REMARK   30  A    between atoms: _71  and  _72
REMARK   31  A    between atoms: _77  and  _78
REMARK   32  A    between atoms: _80  and  _82
REMARK   33  A    between atoms: _82  and  _83
REMARK   34  A    between atoms: _82  and  _85
REMARK   35  A    between atoms: _85  and  _86
REMARK   36  A    between atoms: _91  and  _93
REMARK   37  A    between atoms: _93  and  _94
REMARK   38  A    between atoms: _93  and  _96
REMARK   39  A    between atoms: _96  and  _97
REMARK   40  A    between atoms: _97  and  _98
REMARK   41  A    between atoms: _103  and  _105
REMARK   42  A    between atoms: _105  and  _106
REMARK   43  A    between atoms: _105  and  _108
REMARK   44  A    between atoms: _108  and  _109
REMARK   45  A    between atoms: _109  and  _110
REMARK   46  A    between atoms: _110  and  _111
REMARK   47  A    between atoms: _120  and  _122
REMARK   48  A    between atoms: _122  and  _123
REMARK   49  A    between atoms: _122  and  _125
REMARK   50  A    between atoms: _125  and  _126
REMARK   51  A    between atoms: _129  and  _131
REMARK   52  A    between atoms: _131  and  _132
REMARK   53  A    between atoms: _131  and  _134
REMARK   54  A    between atoms: _134  and  _135
REMARK   55  A    between atoms: _138  and  _140
REMARK   56  A    between atoms: _140  and  _141
REMARK   57  A    between atoms: _140  and  _143
REMARK   58  A    between atoms: _143  and  _144
REMARK   59  A    between atoms: _147  and  _149
REMARK   60  A    between atoms: _149  and  _150
REMARK   61  A    between atoms: _149  and  _152
REMARK   62  A    between atoms: _152  and  _153
REMARK   63  A    between atoms: _156  and  _158
REMARK   64  A    between atoms: _158  and  _159
REMARK   65  A    between atoms: _158  and  _161
REMARK   66  A    between atoms: _161  and  _162
REMARK   67  A    between atoms: _162  and  _163
REMARK   68  A    between atoms: _168  and  _170
REMARK   69  A    between atoms: _170  and  _171
REMARK   70  A    between atoms: _170  and  _173
REMARK   71  A    between atoms: _173  and  _174
REMARK   72  A    between atoms: _177  and  _179
REMARK   73  A    between atoms: _179  and  _180
REMARK   74  A    between atoms: _179  and  _182
REMARK   75  A    between atoms: _182  and  _183
REMARK   76  A    between atoms: _188  and  _190
REMARK   77  A    between atoms: _190  and  _191
REMARK   78  A    between atoms: _190  and  _193
REMARK   79  A    between atoms: _196  and  _198
REMARK   80  A    between atoms: _198  and  _199
REMARK   81  A    between atoms: _198  and  _201
REMARK   82  A    between atoms: _201  and  _202
REMARK   83  A    between atoms: _205  and  _207
REMARK   84  A    between atoms: _207  and  _208
REMARK   85  A    between atoms: _207  and  _210
REMARK   86  A    between atoms: _210  and  _211
REMARK   87  A    between atoms: _214  and  _216
REMARK   88  A    between atoms: _216  and  _217
REMARK   89  A    between atoms: _216  and  _219
REMARK   90  A    between atoms: _219  and  _220
REMARK   91  A    between atoms: _226  and  _228
REMARK   92  A    between atoms: _228  and  _229
REMARK   93  A    between atoms: _228  and  _231
REMARK   94  A    between atoms: _231  and  _232
REMARK   95  A    between atoms: _237  and  _239
REMARK   96  A    between atoms: _239  and  _240
REMARK   97  A    between atoms: _239  and  _242
REMARK   98  A    between atoms: _242  and  _243
REMARK   99  A    between atoms: _253  and  _255
REMARK  100  A    between atoms: _255  and  _256
REMARK  101  A    between atoms: _255  and  _258
REMARK  102  A    between atoms: _258  and  _259
REMARK  103  A    between atoms: _264  and  _265
REMARK  104  A    between atoms: _267  and  _269
REMARK  105  A    between atoms: _269  and  _270
REMARK  106  A    between atoms: _273  and  _275
REMARK  107  A    between atoms: _275  and  _276
REMARK  108  A    between atoms: _275  and  _278
REMARK  109  A    between atoms: _278  and  _279
REMARK  110  A    between atoms: _285  and  _287
REMARK  111  A    between atoms: _287  and  _288
REMARK  112  A    between atoms: _287  and  _290
REMARK  113  A    between atoms: _290  and  _291
REMARK  114  A    between atoms: _296  and  _298
REMARK  115  A    between atoms: _298  and  _299
REMARK  116  A    between atoms: _298  and  _301
REMARK  117  A    between atoms: _301  and  _302
REMARK  118  A    between atoms: _307  and  _309
REMARK  119  A    between atoms: _309  and  _310
REMARK  120  A    between atoms: _309  and  _312
REMARK  121  A    between atoms: _312  and  _313
REMARK  122  A    between atoms: _313  and  _314
REMARK  123  A    between atoms: _319  and  _321
REMARK  124  A    between atoms: _321  and  _322
REMARK  125  A    between atoms: _321  and  _324
REMARK  126  A    between atoms: _324  and  _325
REMARK  127  A    between atoms: _330  and  _331
REMARK  128  A    between atoms: _333  and  _335
REMARK  129  A    between atoms: _335  and  _336
REMARK  130  A    between atoms: _335  and  _338
REMARK  131  A    between atoms: _338  and  _339
REMARK  132  A    between atoms: _342  and  _344
REMARK  133  A    between atoms: _344  and  _345
REMARK  134  A    between atoms: _348  and  _350
REMARK  135  A    between atoms: _350  and  _351
REMARK  136  A    between atoms: _350  and  _353
REMARK  137  A    between atoms: _353  and  _354
REMARK  138  A    between atoms: _356  and  _358
REMARK  139  A    between atoms: _358  and  _359
REMARK  140  A    between atoms: _358  and  _361
REMARK  141  A    between atoms: _361  and  _362
REMARK  142  A    between atoms: _367  and  _368
REMARK  143  A    between atoms: _370  and  _372
REMARK  144  A    between atoms: _372  and  _373
REMARK  145  A    between atoms: _372  and  _375
REMARK  146  A    between atoms: _375  and  _376
REMARK  147  A    between atoms: _376  and  _377
REMARK  148  A    between atoms: _379  and  _381
REMARK  149  A    between atoms: _381  and  _382
REMARK  150  A    between atoms: _381  and  _384
REMARK  151  A    between atoms: _384  and  _385
REMARK  152  A    between atoms: _385  and  _386
REMARK  153  A    between atoms: _386  and  _387
REMARK  154  A    between atoms: _387  and  _388
REMARK  155  A    between atoms: _392  and  _394
REMARK  156  A    between atoms: _394  and  _395
REMARK  157  A    between atoms: _394  and  _397
REMARK  158  A    between atoms: _397  and  _398
REMARK  159  A    between atoms: _400  and  _402
REMARK  160  A    between atoms: _402  and  _403
REMARK  161  A    between atoms: _402  and  _405
REMARK  162  A    between atoms: _405  and  _406
REMARK  163  A    between atoms: _411  and  _412
REMARK  164  A    between atoms: _414  and  _416
REMARK  165  A    between atoms: _416  and  _417
REMARK  166  A    between atoms: _416  and  _419
REMARK  167  A    between atoms: _419  and  _420
REMARK  168  A    between atoms: _422  and  _424
REMARK  169  A    between atoms: _424  and  _425
REMARK  170  A    between atoms: _428  and  _430
REMARK  171  A    between atoms: _430  and  _431
REMARK  172  A    between atoms: _430  and  _433
REMARK  173  A    between atoms: _433  and  _434
REMARK  174  A    between atoms: _437  and  _439
REMARK  175  A    between atoms: _439  and  _440
REMARK  176  A    between atoms: _439  and  _442
REMARK  177  A    between atoms: _442  and  _443
REMARK  178  A    between atoms: _453  and  _455
REMARK  179  A    between atoms: _455  and  _456
REMARK  180  A    between atoms: _455  and  _458
REMARK  181  A    between atoms: _458  and  _459
REMARK  182  A    between atoms: _459  and  _460
REMARK  183  A    between atoms: _465  and  _467
REMARK  184  A    between atoms: _467  and  _468
REMARK  185  A    between atoms: _467  and  _470
REMARK  186  A    between atoms: _473  and  _475
REMARK  187  A    between atoms: _475  and  _476
REMARK  188  A    between atoms: _475  and  _478
REMARK  189  A    between atoms: _478  and  _479
REMARK  190  A    between atoms: _482  and  _484
REMARK  191  A    between atoms: _484  and  _485
REMARK  192  A    between atoms: _488  and  _490
REMARK  193  A    between atoms: _490  and  _491
REMARK  194  A    between atoms: _490  and  _493
REMARK  195  A    between atoms: _496  and  _498
REMARK  196  A    between atoms: _498  and  _499
REMARK  197  A    between atoms: _498  and  _501
REMARK  198  A    between atoms: _501  and  _502
REMARK  199  A    between atoms: _508  and  _510
REMARK  200  A    between atoms: _510  and  _511
REMARK  201  A    between atoms: _510  and  _513
REMARK  202  A    between atoms: _513  and  _514
REMARK  203  A    between atoms: _516  and  _518
REMARK  204  A    between atoms: _518  and  _519
REMARK  205  A    between atoms: _518  and  _521
REMARK  206  A    between atoms: _521  and  _522
REMARK  207  A    between atoms: _527  and  _529
REMARK  208  A    between atoms: _529  and  _530
REMARK  209  A    between atoms: _529  and  _532
REMARK  210  A    between atoms: _532  and  _533
REMARK  211  A    between atoms: _543  and  _545
REMARK  212  A    between atoms: _545  and  _546
REMARK  213  A    between atoms: _545  and  _548
REMARK  214  A    between atoms: _548  and  _549
REMARK  215  A    between atoms: _552  and  _554
REMARK  216  A    between atoms: _554  and  _555
REMARK  217  A    between atoms: _554  and  _557
REMARK  218  A    between atoms: _557  and  _558
REMARK  219  A    between atoms: _563  and  _564
REMARK  220  A    between atoms: _566  and  _568
REMARK  221  A    between atoms: _568  and  _569
REMARK  222  A    between atoms: _568  and  _571
REMARK  223  A    between atoms: _571  and  _572
REMARK  224  A    between atoms: _575  and  _577
REMARK  225  A    between atoms: _577  and  _578
REMARK  226  A    between atoms: _577  and  _580
REMARK  227  A    between atoms: _580  and  _581
REMARK  228  A    between atoms: _581  and  _582
REMARK  229  A    between atoms: _585  and  _587
REMARK  230  A    between atoms: _587  and  _588
REMARK  231  A    between atoms: _587  and  _590
REMARK  232  A    between atoms: _590  and  _591
REMARK  233  A    between atoms: _596  and  _598
REMARK  234  A    between atoms: _598  and  _599
REMARK  235  A    between atoms: _601  and  _603
REMARK  236  A    between atoms: _603  and  _604
REMARK  237  A    between atoms: _603  and  _606
REMARK  238  A    between atoms: _606  and  _607
REMARK  239  A    between atoms: _607  and  _608
REMARK  240  A    between atoms: _610  and  _612
REMARK  241  A    between atoms: _612  and  _613
REMARK  242  A    between atoms: _612  and  _615
REMARK  243  A    between atoms: _615  and  _616
REMARK  244  A    between atoms: _619  and  _621
REMARK  245  A    between atoms: _621  and  _622
REMARK  246  A    between atoms: _621  and  _624
REMARK  247  A    between atoms: _624  and  _625
REMARK  248  A    between atoms: _635  and  _637
REMARK  249  A    between atoms: _637  and  _638
REMARK  250  A    between atoms: _637  and  _640
REMARK  251  A    between atoms: _640  and  _641
REMARK  252  A    between atoms: _643  and  _645
REMARK  253  A    between atoms: _645  and  _646
REMARK  254  A    between atoms: _645  and  _648
REMARK  255  A    between atoms: _648  and  _649
REMARK  256  A    between atoms: _654  and  _656
REMARK  257  A    between atoms: _656  and  _657
REMARK  258  A    between atoms: _656  and  _659
REMARK  259  A    between atoms: _659  and  _660
REMARK  260  A    between atoms: _666  and  _668
REMARK  261  A    between atoms: _668  and  _669
REMARK  262  A    between atoms: _668  and  _671
REMARK  263  A    between atoms: _671  and  _672
REMARK  264  A    between atoms: _672  and  _673
REMARK  265  A    between atoms: _676  and  _678
REMARK  266  A    between atoms: _678  and  _679
REMARK  267  A    between atoms: _678  and  _681
REMARK  268  A    between atoms: _681  and  _682
REMARK  269  A    between atoms: _692  and  _694
REMARK  270  A    between atoms: _694  and  _695
REMARK  271  A    between atoms: _694  and  _697
REMARK  272  A    between atoms: _697  and  _698
REMARK  273  A    between atoms: _701  and  _703
REMARK  274  A    between atoms: _703  and  _704
REMARK  275  A    between atoms: _703  and  _706
REMARK  276  A    between atoms: _706  and  _707
REMARK  277  A    between atoms: _709  and  _711
REMARK  278  A    between atoms: _711  and  _712
REMARK  279  A    between atoms: _711  and  _714
REMARK  280  A    between atoms: _714  and  _715
REMARK  281  A    between atoms: _717  and  _719
REMARK  282  A    between atoms: _719  and  _720
REMARK  283  A    between atoms: _719  and  _722
REMARK  284  A    between atoms: _722  and  _723
REMARK                            x       y       z     vdW  Elec       q    Type
REMARK                         _______ _______ _______ _____ _____    ______ ____
ROOT
ATOM      1  O   HOH     1     -15.625  -2.546  56.038  0.00  0.00    +0.000 OA
ENDROOT
TORSDOF 0
REMARK  Name = ../refined-set-2016/4qlk/4qlk_pocket.pdb
REMARK  284 active torsions:
REMARK  status: ('A' for Active; 'I' for Inactive)
REMARK    1  A    between atoms: _1  and  _3
REMARK    2  A    between atoms: _3  and  _4
REMARK    3  A    between atoms: _3  and  _6
REMARK    4  A    between atoms: _9  and  _11
REMARK    5  A    between atoms: _11  and  _12
REMARK    6  A    between atoms: _11  and  _14
REMARK    7  A    between atoms: _14  and  _15
REMARK    8  A    between atoms: _18  and  _20
REMARK    9  A    between atoms: _20  and  _21
REMARK   10  A    between atoms: _20  and  _23
REMARK   11  A    between atoms: _23  and  _24
REMARK   12  A    between atoms: _26  and  _28
REMARK   13  A    between atoms: _28  and  _29
REMARK   14  A    between atoms: _28  and  _31
REMARK   15  A    between atoms: _31  and  _32
REMARK   16  A    between atoms: _32  and  _33
REMARK   17  A    between atoms: _38  and  _40
REMARK   18  A    between atoms: _40  and  _41
REMARK   19  A    between atoms: _40  and  _43
REMARK   20  A    between atoms: _43  and  _44
REMARK   21  A    between atoms: _44  and  _45
REMARK   22  A    between atoms: _45  and  _46
REMARK   23  A    between atoms: _55  and  _57
REMARK   24  A    between atoms: _57  and  _58
REMARK   25  A    between atoms: _57  and  _60
REMARK   26  A    between atoms: _60  and  _61
REMARK   27  A    between atoms: _66  and  _68
REMARK   28  A    between atoms: _68  and  _69
REMARK   29  A    between atoms: _68  and  _71
REMARK   30  A    between atoms: _71  and  _72
REMARK   31  A    between atoms: _77  and  _78
REMARK   32  A    between atoms: _80  and  _82
REMARK   33  A    between atoms: _82  and  _83
REMARK   34  A    between atoms: _82  and  _85
REMARK   35  A    between atoms: _85  and  _86
REMARK   36  A    between atoms: _91  and  _93
REMARK   37  A    between atoms: _93  and  _94
REMARK   38  A    between atoms: _93  and  _96
REMARK   39  A    between atoms: _96  and  _97
REMARK   40  A    between atoms: _97  and  _98
REMARK   41  A    between atoms: _103  and  _105
REMARK   42  A    between atoms: _105  and  _106
REMARK   43  A    between atoms: _105  and  _108
REMARK   44  A    between atoms: _108  and  _109
REMARK   45  A    between atoms: _109  and  _110
REMARK   46  A    between atoms: _110  and  _111
REMARK   47  A    between atoms: _120  and  _122
REMARK   48  A    between atoms: _122  and  _123
REMARK   49  A    between atoms: _122  and  _125
REMARK   50  A    between atoms: _125  and  _126
REMARK   51  A    between atoms: _129  and  _131
REMARK   52  A    between atoms: _131  and  _132
REMARK   53  A    between atoms: _131  and  _134
REMARK   54  A    between atoms: _134  and  _135
REMARK   55  A    between atoms: _138  and  _140
REMARK   56  A    between atoms: _140  and  _141
REMARK   57  A    between atoms: _140  and  _143
REMARK   58  A    between atoms: _143  and  _144
REMARK   59  A    between atoms: _147  and  _149
REMARK   60  A    between atoms: _149  and  _150
REMARK   61  A    between atoms: _149  and  _152
REMARK   62  A    between atoms: _152  and  _153
REMARK   63  A    between atoms: _156  and  _158
REMARK   64  A    between atoms: _158  and  _159
REMARK   65  A    between atoms: _158  and  _161
REMARK   66  A    between atoms: _161  and  _162
REMARK   67  A    between atoms: _162  and  _163
REMARK   68  A    between atoms: _168  and  _170
REMARK   69  A    between atoms: _170  and  _171
REMARK   70  A    between atoms: _170  and  _173
REMARK   71  A    between atoms: _173  and  _174
REMARK   72  A    between atoms: _177  and  _179
REMARK   73  A    between atoms: _179  and  _180
REMARK   74  A    between atoms: _179  and  _182
REMARK   75  A    between atoms: _182  and  _183
REMARK   76  A    between atoms: _188  and  _190
REMARK   77  A    between atoms: _190  and  _191
REMARK   78  A    between atoms: _190  and  _193
REMARK   79  A    between atoms: _196  and  _198
REMARK   80  A    between atoms: _198  and  _199
REMARK   81  A    between atoms: _198  and  _201
REMARK   82  A    between atoms: _201  and  _202
REMARK   83  A    between atoms: _205  and  _207
REMARK   84  A    between atoms: _207  and  _208
REMARK   85  A    between atoms: _207  and  _210
REMARK   86  A    between atoms: _210  and  _211
REMARK   87  A    between atoms: _214  and  _216
REMARK   88  A    between atoms: _216  and  _217
REMARK   89  A    between atoms: _216  and  _219
REMARK   90  A    between atoms: _219  and  _220
REMARK   91  A    between atoms: _226  and  _228
REMARK   92  A    between atoms: _228  and  _229
REMARK   93  A    between atoms: _228  and  _231
REMARK   94  A    between atoms: _231  and  _232
REMARK   95  A    between atoms: _237  and  _239
REMARK   96  A    between atoms: _239  and  _240
REMARK   97  A    between atoms: _239  and  _242
REMARK   98  A    between atoms: _242  and  _243
REMARK   99  A    between atoms: _253  and  _255
REMARK  100  A    between atoms: _255  and  _256
REMARK  101  A    between atoms: _255  and  _258
REMARK  102  A    between atoms: _258  and  _259
REMARK  103  A    between atoms: _264  and  _265
REMARK  104  A    between atoms: _267  and  _269
REMARK  105  A    between atoms: _269  and  _270
REMARK  106  A    between atoms: _273  and  _275
REMARK  107  A    between atoms: _275  and  _276
REMARK  108  A    between atoms: _275  and  _278
REMARK  109  A    between atoms: _278  and  _279
REMARK  110  A    between atoms: _285  and  _287
REMARK  111  A    between atoms: _287  and  _288
REMARK  112  A    between atoms: _287  and  _290
REMARK  113  A    between atoms: _290  and  _291
REMARK  114  A    between atoms: _296  and  _298
REMARK  115  A    between atoms: _298  and  _299
REMARK  116  A    between atoms: _298  and  _301
REMARK  117  A    between atoms: _301  and  _302
REMARK  118  A    between atoms: _307  and  _309
REMARK  119  A    between atoms: _309  and  _310
REMARK  120  A    between atoms: _309  and  _312
REMARK  121  A    between atoms: _312  and  _313
REMARK  122  A    between atoms: _313  and  _314
REMARK  123  A    between atoms: _319  and  _321
REMARK  124  A    between atoms: _321  and  _322
REMARK  125  A    between atoms: _321  and  _324
REMARK  126  A    between atoms: _324  and  _325
REMARK  127  A    between atoms: _330  and  _331
REMARK  128  A    between atoms: _333  and  _335
REMARK  129  A    between atoms: _335  and  _336
REMARK  130  A    between atoms: _335  and  _338
REMARK  131  A    between atoms: _338  and  _339
REMARK  132  A    between atoms: _342  and  _344
REMARK  133  A    between atoms: _344  and  _345
REMARK  134  A    between atoms: _348  and  _350
REMARK  135  A    between atoms: _350  and  _351
REMARK  136  A    between atoms: _350  and  _353
REMARK  137  A    between atoms: _353  and  _354
REMARK  138  A    between atoms: _356  and  _358
REMARK  139  A    between atoms: _358  and  _359
REMARK  140  A    between atoms: _358  and  _361
REMARK  141  A    between atoms: _361  and  _362
REMARK  142  A    between atoms: _367  and  _368
REMARK  143  A    between atoms: _370  and  _372
REMARK  144  A    between atoms: _372  and  _373
REMARK  145  A    between atoms: _372  and  _375
REMARK  146  A    between atoms: _375  and  _376
REMARK  147  A    between atoms: _376  and  _377
REMARK  148  A    between atoms: _379  and  _381
REMARK  149  A    between atoms: _381  and  _382
REMARK  150  A    between atoms: _381  and  _384
REMARK  151  A    between atoms: _384  and  _385
REMARK  152  A    between atoms: _385  and  _386
REMARK  153  A    between atoms: _386  and  _387
REMARK  154  A    between atoms: _387  and  _388
REMARK  155  A    between atoms: _392  and  _394
REMARK  156  A    between atoms: _394  and  _395
REMARK  157  A    between atoms: _394  and  _397
REMARK  158  A    between atoms: _397  and  _398
REMARK  159  A    between atoms: _400  and  _402
REMARK  160  A    between atoms: _402  and  _403
REMARK  161  A    between atoms: _402  and  _405
REMARK  162  A    between atoms: _405  and  _406
REMARK  163  A    between atoms: _411  and  _412
REMARK  164  A    between atoms: _414  and  _416
REMARK  165  A    between atoms: _416  and  _417
REMARK  166  A    between atoms: _416  and  _419
REMARK  167  A    between atoms: _419  and  _420
REMARK  168  A    between atoms: _422  and  _424
REMARK  169  A    between atoms: _424  and  _425
REMARK  170  A    between atoms: _428  and  _430
REMARK  171  A    between atoms: _430  and  _431
REMARK  172  A    between atoms: _430  and  _433
REMARK  173  A    between atoms: _433  and  _434
REMARK  174  A    between atoms: _437  and  _439
REMARK  175  A    between atoms: _439  and  _440
REMARK  176  A    between atoms: _439  and  _442
REMARK  177  A    between atoms: _442  and  _443
REMARK  178  A    between atoms: _453  and  _455
REMARK  179  A    between atoms: _455  and  _456
REMARK  180  A    between atoms: _455  and  _458
REMARK  181  A    between atoms: _458  and  _459
REMARK  182  A    between atoms: _459  and  _460
REMARK  183  A    between atoms: _465  and  _467
REMARK  184  A    between atoms: _467  and  _468
REMARK  185  A    between atoms: _467  and  _470
REMARK  186  A    between atoms: _473  and  _475
REMARK  187  A    between atoms: _475  and  _476
REMARK  188  A    between atoms: _475  and  _478
REMARK  189  A    between atoms: _478  and  _479
REMARK  190  A    between atoms: _482  and  _484
REMARK  191  A    between atoms: _484  and  _485
REMARK  192  A    between atoms: _488  and  _490
REMARK  193  A    between atoms: _490  and  _491
REMARK  194  A    between atoms: _490  and  _493
REMARK  195  A    between atoms: _496  and  _498
REMARK  196  A    between atoms: _498  and  _499
REMARK  197  A    between atoms: _498  and  _501
REMARK  198  A    between atoms: _501  and  _502
REMARK  199  A    between atoms: _508  and  _510
REMARK  200  A    between atoms: _510  and  _511
REMARK  201  A    between atoms: _510  and  _513
REMARK  202  A    between atoms: _513  and  _514
REMARK  203  A    between atoms: _516  and  _518
REMARK  204  A    between atoms: _518  and  _519
REMARK  205  A    between atoms: _518  and  _521
REMARK  206  A    between atoms: _521  and  _522
REMARK  207  A    between atoms: _527  and  _529
REMARK  208  A    between atoms: _529  and  _530
REMARK  209  A    between atoms: _529  and  _532
REMARK  210  A    between atoms: _532  and  _533
REMARK  211  A    between atoms: _543  and  _545
REMARK  212  A    between atoms: _545  and  _546
REMARK  213  A    between atoms: _545  and  _548
REMARK  214  A    between atoms: _548  and  _549
REMARK  215  A    between atoms: _552  and  _554
REMARK  216  A    between atoms: _554  and  _555
REMARK  217  A    between atoms: _554  and  _557
REMARK  218  A    between atoms: _557  and  _558
REMARK  219  A    between atoms: _563  and  _564
REMARK  220  A    between atoms: _566  and  _568
REMARK  221  A    between atoms: _568  and  _569
REMARK  222  A    between atoms: _568  and  _571
REMARK  223  A    between atoms: _571  and  _572
REMARK  224  A    between atoms: _575  and  _577
REMARK  225  A    between atoms: _577  and  _578
REMARK  226  A    between atoms: _577  and  _580
REMARK  227  A    between atoms: _580  and  _581
REMARK  228  A    between atoms: _581  and  _582
REMARK  229  A    between atoms: _585  and  _587
REMARK  230  A    between atoms: _587  and  _588
REMARK  231  A    between atoms: _587  and  _590
REMARK  232  A    between atoms: _590  and  _591
REMARK  233  A    between atoms: _596  and  _598
REMARK  234  A    between atoms: _598  and  _599
REMARK  235  A    between atoms: _601  and  _603
REMARK  236  A    between atoms: _603  and  _604
REMARK  237  A    between atoms: _603  and  _606
REMARK  238  A    between atoms: _606  and  _607
REMARK  239  A    between atoms: _607  and  _608
REMARK  240  A    between atoms: _610  and  _612
REMARK  241  A    between atoms: _612  and  _613
REMARK  242  A    between atoms: _612  and  _615
REMARK  243  A    between atoms: _615  and  _616
REMARK  244  A    between atoms: _619  and  _621
REMARK  245  A    between atoms: _621  and  _622
REMARK  246  A    between atoms: _621  and  _624
REMARK  247  A    between atoms: _624  and  _625
REMARK  248  A    between atoms: _635  and  _637
REMARK  249  A    between atoms: _637  and  _638
REMARK  250  A    between atoms: _637  and  _640
REMARK  251  A    between atoms: _640  and  _641
REMARK  252  A    between atoms: _643  and  _645
REMARK  253  A    between atoms: _645  and  _646
REMARK  254  A    between atoms: _645  and  _648
REMARK  255  A    between atoms: _648  and  _649
REMARK  256  A    between atoms: _654  and  _656
REMARK  257  A    between atoms: _656  and  _657
REMARK  258  A    between atoms: _656  and  _659
REMARK  259  A    between atoms: _659  and  _660
REMARK  260  A    between atoms: _666  and  _668
REMARK  261  A    between atoms: _668  and  _669
REMARK  262  A    between atoms: _668  and  _671
REMARK  263  A    between atoms: _671  and  _672
REMARK  264  A    between atoms: _672  and  _673
REMARK  265  A    between atoms: _676  and  _678
REMARK  266  A    between atoms: _678  and  _679
REMARK  267  A    between atoms: _678  and  _681
REMARK  268  A    between atoms: _681  and  _682
REMARK  269  A    between atoms: _692  and  _694
REMARK  270  A    between atoms: _694  and  _695
REMARK  271  A    between atoms: _694  and  _697
REMARK  272  A    between atoms: _697  and  _698
REMARK  273  A    between atoms: _701  and  _703
REMARK  274  A    between atoms: _703  and  _704
REMARK  275  A    between atoms: _703  and  _706
REMARK  276  A    between atoms: _706  and  _707
REMARK  277  A    between atoms: _709  and  _711
REMARK  278  A    between atoms: _711  and  _712
REMARK  279  A    between atoms: _711  and  _714
REMARK  280  A    between atoms: _714  and  _715
REMARK  281  A    between atoms: _717  and  _719
REMARK  282  A    between atoms: _719  and  _720
REMARK  283  A    between atoms: _719  and  _722
REMARK  284  A    between atoms: _722  and  _723
REMARK                            x       y       z     vdW  Elec       q    Type
REMARK                         _______ _______ _______ _____ _____    ______ ____
ROOT
ATOM      1  O   HOH     1      -6.512   1.070  55.760  0.00  0.00    +0.000 OA
ENDROOT
TORSDOF 0
REMARK  Name = ../refined-set-2016/4qlk/4qlk_pocket.pdb
REMARK  284 active torsions:
REMARK  status: ('A' for Active; 'I' for Inactive)
REMARK    1  A    between atoms: _1  and  _3
REMARK    2  A    between atoms: _3  and  _4
REMARK    3  A    between atoms: _3  and  _6
REMARK    4  A    between atoms: _9  and  _11
REMARK    5  A    between atoms: _11  and  _12
REMARK    6  A    between atoms: _11  and  _14
REMARK    7  A    between atoms: _14  and  _15
REMARK    8  A    between atoms: _18  and  _20
REMARK    9  A    between atoms: _20  and  _21
REMARK   10  A    between atoms: _20  and  _23
REMARK   11  A    between atoms: _23  and  _24
REMARK   12  A    between atoms: _26  and  _28
REMARK   13  A    between atoms: _28  and  _29
REMARK   14  A    between atoms: _28  and  _31
REMARK   15  A    between atoms: _31  and  _32
REMARK   16  A    between atoms: _32  and  _33
REMARK   17  A    between atoms: _38  and  _40
REMARK   18  A    between atoms: _40  and  _41
REMARK   19  A    between atoms: _40  and  _43
REMARK   20  A    between atoms: _43  and  _44
REMARK   21  A    between atoms: _44  and  _45
REMARK   22  A    between atoms: _45  and  _46
REMARK   23  A    between atoms: _55  and  _57
REMARK   24  A    between atoms: _57  and  _58
REMARK   25  A    between atoms: _57  and  _60
REMARK   26  A    between atoms: _60  and  _61
REMARK   27  A    between atoms: _66  and  _68
REMARK   28  A    between atoms: _68  and  _69
REMARK   29  A    between atoms: _68  and  _71
REMARK   30  A    between atoms: _71  and  _72
REMARK   31  A    between atoms: _77  and  _78
REMARK   32  A    between atoms: _80  and  _82
REMARK   33  A    between atoms: _82  and  _83
REMARK   34  A    between atoms: _82  and  _85
REMARK   35  A    between atoms: _85  and  _86
REMARK   36  A    between atoms: _91  and  _93
REMARK   37  A    between atoms: _93  and  _94
REMARK   38  A    between atoms: _93  and  _96
REMARK   39  A    between atoms: _96  and  _97
REMARK   40  A    between atoms: _97  and  _98
REMARK   41  A    between atoms: _103  and  _105
REMARK   42  A    between atoms: _105  and  _106
REMARK   43  A    between atoms: _105  and  _108
REMARK   44  A    between atoms: _108  and  _109
REMARK   45  A    between atoms: _109  and  _110
REMARK   46  A    between atoms: _110  and  _111
REMARK   47  A    between atoms: _120  and  _122
REMARK   48  A    between atoms: _122  and  _123
REMARK   49  A    between atoms: _122  and  _125
REMARK   50  A    between atoms: _125  and  _126
REMARK   51  A    between atoms: _129  and  _131
REMARK   52  A    between atoms: _131  and  _132
REMARK   53  A    between atoms: _131  and  _134
REMARK   54  A    between atoms: _134  and  _135
REMARK   55  A    between atoms: _138  and  _140
REMARK   56  A    between atoms: _140  and  _141
REMARK   57  A    between atoms: _140  and  _143
REMARK   58  A    between atoms: _143  and  _144
REMARK   59  A    between atoms: _147  and  _149
REMARK   60  A    between atoms: _149  and  _150
REMARK   61  A    between atoms: _149  and  _152
REMARK   62  A    between atoms: _152  and  _153
REMARK   63  A    between atoms: _156  and  _158
REMARK   64  A    between atoms: _158  and  _159
REMARK   65  A    between atoms: _158  and  _161
REMARK   66  A    between atoms: _161  and  _162
REMARK   67  A    between atoms: _162  and  _163
REMARK   68  A    between atoms: _168  and  _170
REMARK   69  A    between atoms: _170  and  _171
REMARK   70  A    between atoms: _170  and  _173
REMARK   71  A    between atoms: _173  and  _174
REMARK   72  A    between atoms: _177  and  _179
REMARK   73  A    between atoms: _179  and  _180
REMARK   74  A    between atoms: _179  and  _182
REMARK   75  A    between atoms: _182  and  _183
REMARK   76  A    between atoms: _188  and  _190
REMARK   77  A    between atoms: _190  and  _191
REMARK   78  A    between atoms: _190  and  _193
REMARK   79  A    between atoms: _196  and  _198
REMARK   80  A    between atoms: _198  and  _199
REMARK   81  A    between atoms: _198  and  _201
REMARK   82  A    between atoms: _201  and  _202
REMARK   83  A    between atoms: _205  and  _207
REMARK   84  A    between atoms: _207  and  _208
REMARK   85  A    between atoms: _207  and  _210
REMARK   86  A    between atoms: _210  and  _211
REMARK   87  A    between atoms: _214  and  _216
REMARK   88  A    between atoms: _216  and  _217
REMARK   89  A    between atoms: _216  and  _219
REMARK   90  A    between atoms: _219  and  _220
REMARK   91  A    between atoms: _226  and  _228
REMARK   92  A    between atoms: _228  and  _229
REMARK   93  A    between atoms: _228  and  _231
REMARK   94  A    between atoms: _231  and  _232
REMARK   95  A    between atoms: _237  and  _239
REMARK   96  A    between atoms: _239  and  _240
REMARK   97  A    between atoms: _239  and  _242
REMARK   98  A    between atoms: _242  and  _243
REMARK   99  A    between atoms: _253  and  _255
REMARK  100  A    between atoms: _255  and  _256
REMARK  101  A    between atoms: _255  and  _258
REMARK  102  A    between atoms: _258  and  _259
REMARK  103  A    between atoms: _264  and  _265
REMARK  104  A    between atoms: _267  and  _269
REMARK  105  A    between atoms: _269  and  _270
REMARK  106  A    between atoms: _273  and  _275
REMARK  107  A    between atoms: _275  and  _276
REMARK  108  A    between atoms: _275  and  _278
REMARK  109  A    between atoms: _278  and  _279
REMARK  110  A    between atoms: _285  and  _287
REMARK  111  A    between atoms: _287  and  _288
REMARK  112  A    between atoms: _287  and  _290
REMARK  113  A    between atoms: _290  and  _291
REMARK  114  A    between atoms: _296  and  _298
REMARK  115  A    between atoms: _298  and  _299
REMARK  116  A    between atoms: _298  and  _301
REMARK  117  A    between atoms: _301  and  _302
REMARK  118  A    between atoms: _307  and  _309
REMARK  119  A    between atoms: _309  and  _310
REMARK  120  A    between atoms: _309  and  _312
REMARK  121  A    between atoms: _312  and  _313
REMARK  122  A    between atoms: _313  and  _314
REMARK  123  A    between atoms: _319  and  _321
REMARK  124  A    between atoms: _321  and  _322
REMARK  125  A    between atoms: _321  and  _324
REMARK  126  A    between atoms: _324  and  _325
REMARK  127  A    between atoms: _330  and  _331
REMARK  128  A    between atoms: _333  and  _335
REMARK  129  A    between atoms: _335  and  _336
REMARK  130  A    between atoms: _335  and  _338
REMARK  131  A    between atoms: _338  and  _339
REMARK  132  A    between atoms: _342  and  _344
REMARK  133  A    between atoms: _344  and  _345
REMARK  134  A    between atoms: _348  and  _350
REMARK  135  A    between atoms: _350  and  _351
REMARK  136  A    between atoms: _350  and  _353
REMARK  137  A    between atoms: _353  and  _354
REMARK  138  A    between atoms: _356  and  _358
REMARK  139  A    between atoms: _358  and  _359
REMARK  140  A    between atoms: _358  and  _361
REMARK  141  A    between atoms: _361  and  _362
REMARK  142  A    between atoms: _367  and  _368
REMARK  143  A    between atoms: _370  and  _372
REMARK  144  A    between atoms: _372  and  _373
REMARK  145  A    between atoms: _372  and  _375
REMARK  146  A    between atoms: _375  and  _376
REMARK  147  A    between atoms: _376  and  _377
REMARK  148  A    between atoms: _379  and  _381
REMARK  149  A    between atoms: _381  and  _382
REMARK  150  A    between atoms: _381  and  _384
REMARK  151  A    between atoms: _384  and  _385
REMARK  152  A    between atoms: _385  and  _386
REMARK  153  A    between atoms: _386  and  _387
REMARK  154  A    between atoms: _387  and  _388
REMARK  155  A    between atoms: _392  and  _394
REMARK  156  A    between atoms: _394  and  _395
REMARK  157  A    between atoms: _394  and  _397
REMARK  158  A    between atoms: _397  and  _398
REMARK  159  A    between atoms: _400  and  _402
REMARK  160  A    between atoms: _402  and  _403
REMARK  161  A    between atoms: _402  and  _405
REMARK  162  A    between atoms: _405  and  _406
REMARK  163  A    between atoms: _411  and  _412
REMARK  164  A    between atoms: _414  and  _416
REMARK  165  A    between atoms: _416  and  _417
REMARK  166  A    between atoms: _416  and  _419
REMARK  167  A    between atoms: _419  and  _420
REMARK  168  A    between atoms: _422  and  _424
REMARK  169  A    between atoms: _424  and  _425
REMARK  170  A    between atoms: _428  and  _430
REMARK  171  A    between atoms: _430  and  _431
REMARK  172  A    between atoms: _430  and  _433
REMARK  173  A    between atoms: _433  and  _434
REMARK  174  A    between atoms: _437  and  _439
REMARK  175  A    between atoms: _439  and  _440
REMARK  176  A    between atoms: _439  and  _442
REMARK  177  A    between atoms: _442  and  _443
REMARK  178  A    between atoms: _453  and  _455
REMARK  179  A    between atoms: _455  and  _456
REMARK  180  A    between atoms: _455  and  _458
REMARK  181  A    between atoms: _458  and  _459
REMARK  182  A    between atoms: _459  and  _460
REMARK  183  A    between atoms: _465  and  _467
REMARK  184  A    between atoms: _467  and  _468
REMARK  185  A    between atoms: _467  and  _470
REMARK  186  A    between atoms: _473  and  _475
REMARK  187  A    between atoms: _475  and  _476
REMARK  188  A    between atoms: _475  and  _478
REMARK  189  A    between atoms: _478  and  _479
REMARK  190  A    between atoms: _482  and  _484
REMARK  191  A    between atoms: _484  and  _485
REMARK  192  A    between atoms: _488  and  _490
REMARK  193  A    between atoms: _490  and  _491
REMARK  194  A    between atoms: _490  and  _493
REMARK  195  A    between atoms: _496  and  _498
REMARK  196  A    between atoms: _498  and  _499
REMARK  197  A    between atoms: _498  and  _501
REMARK  198  A    between atoms: _501  and  _502
REMARK  199  A    between atoms: _508  and  _510
REMARK  200  A    between atoms: _510  and  _511
REMARK  201  A    between atoms: _510  and  _513
REMARK  202  A    between atoms: _513  and  _514
REMARK  203  A    between atoms: _516  and  _518
REMARK  204  A    between atoms: _518  and  _519
REMARK  205  A    between atoms: _518  and  _521
REMARK  206  A    between atoms: _521  and  _522
REMARK  207  A    between atoms: _527  and  _529
REMARK  208  A    between atoms: _529  and  _530
REMARK  209  A    between atoms: _529  and  _532
REMARK  210  A    between atoms: _532  and  _533
REMARK  211  A    between atoms: _543  and  _545
REMARK  212  A    between atoms: _545  and  _546
REMARK  213  A    between atoms: _545  and  _548
REMARK  214  A    between atoms: _548  and  _549
REMARK  215  A    between atoms: _552  and  _554
REMARK  216  A    between atoms: _554  and  _555
REMARK  217  A    between atoms: _554  and  _557
REMARK  218  A    between atoms: _557  and  _558
REMARK  219  A    between atoms: _563  and  _564
REMARK  220  A    between atoms: _566  and  _568
REMARK  221  A    between atoms: _568  and  _569
REMARK  222  A    between atoms: _568  and  _571
REMARK  223  A    between atoms: _571  and  _572
REMARK  224  A    between atoms: _575  and  _577
REMARK  225  A    between atoms: _577  and  _578
REMARK  226  A    between atoms: _577  and  _580
REMARK  227  A    between atoms: _580  and  _581
REMARK  228  A    between atoms: _581  and  _582
REMARK  229  A    between atoms: _585  and  _587
REMARK  230  A    between atoms: _587  and  _588
REMARK  231  A    between atoms: _587  and  _590
REMARK  232  A    between atoms: _590  and  _591
REMARK  233  A    between atoms: _596  and  _598
REMARK  234  A    between atoms: _598  and  _599
REMARK  235  A    between atoms: _601  and  _603
REMARK  236  A    between atoms: _603  and  _604
REMARK  237  A    between atoms: _603  and  _606
REMARK  238  A    between atoms: _606  and  _607
REMARK  239  A    between atoms: _607  and  _608
REMARK  240  A    between atoms: _610  and  _612
REMARK  241  A    between atoms: _612  and  _613
REMARK  242  A    between atoms: _612  and  _615
REMARK  243  A    between atoms: _615  and  _616
REMARK  244  A    between atoms: _619  and  _621
REMARK  245  A    between atoms: _621  and  _622
REMARK  246  A    between atoms: _621  and  _624
REMARK  247  A    between atoms: _624  and  _625
REMARK  248  A    between atoms: _635  and  _637
REMARK  249  A    between atoms: _637  and  _638
REMARK  250  A    between atoms: _637  and  _640
REMARK  251  A    between atoms: _640  and  _641
REMARK  252  A    between atoms: _643  and  _645
REMARK  253  A    between atoms: _645  and  _646
REMARK  254  A    between atoms: _645  and  _648
REMARK  255  A    between atoms: _648  and  _649
REMARK  256  A    between atoms: _654  and  _656
REMARK  257  A    between atoms: _656  and  _657
REMARK  258  A    between atoms: _656  and  _659
REMARK  259  A    between atoms: _659  and  _660
REMARK  260  A    between atoms: _666  and  _668
REMARK  261  A    between atoms: _668  and  _669
REMARK  262  A    between atoms: _668  and  _671
REMARK  263  A    between atoms: _671  and  _672
REMARK  264  A    between atoms: _672  and  _673
REMARK  265  A    between atoms: _676  and  _678
REMARK  266  A    between atoms: _678  and  _679
REMARK  267  A    between atoms: _678  and  _681
REMARK  268  A    between atoms: _681  and  _682
REMARK  269  A    between atoms: _692  and  _694
REMARK  270  A    between atoms: _694  and  _695
REMARK  271  A    between atoms: _694  and  _697
REMARK  272  A    between atoms: _697  and  _698
REMARK  273  A    between atoms: _701  and  _703
REMARK  274  A    between atoms: _703  and  _704
REMARK  275  A    between atoms: _703  and  _706
REMARK  276  A    between atoms: _706  and  _707
REMARK  277  A    between atoms: _709  and  _711
REMARK  278  A    between atoms: _711  and  _712
REMARK  279  A    between atoms: _711  and  _714
REMARK  280  A    between atoms: _714  and  _715
REMARK  281  A    between atoms: _717  and  _719
REMARK  282  A    between atoms: _719  and  _720
REMARK  283  A    between atoms: _719  and  _722
REMARK  284  A    between atoms: _722  and  _723
REMARK                            x       y       z     vdW  Elec       q    Type
REMARK                         _______ _______ _______ _____ _____    ______ ____
ROOT
ATOM      1  O   HOH     1      -4.683  -2.623  57.966  0.00  0.00    +0.000 OA
ENDROOT
TORSDOF 0
REMARK  Name = ../refined-set-2016/4qlk/4qlk_pocket.pdb
REMARK  284 active torsions:
REMARK  status: ('A' for Active; 'I' for Inactive)
REMARK    1  A    between atoms: _1  and  _3
REMARK    2  A    between atoms: _3  and  _4
REMARK    3  A    between atoms: _3  and  _6
REMARK    4  A    between atoms: _9  and  _11
REMARK    5  A    between atoms: _11  and  _12
REMARK    6  A    between atoms: _11  and  _14
REMARK    7  A    between atoms: _14  and  _15
REMARK    8  A    between atoms: _18  and  _20
REMARK    9  A    between atoms: _20  and  _21
REMARK   10  A    between atoms: _20  and  _23
REMARK   11  A    between atoms: _23  and  _24
REMARK   12  A    between atoms: _26  and  _28
REMARK   13  A    between atoms: _28  and  _29
REMARK   14  A    between atoms: _28  and  _31
REMARK   15  A    between atoms: _31  and  _32
REMARK   16  A    between atoms: _32  and  _33
REMARK   17  A    between atoms: _38  and  _40
REMARK   18  A    between atoms: _40  and  _41
REMARK   19  A    between atoms: _40  and  _43
REMARK   20  A    between atoms: _43  and  _44
REMARK   21  A    between atoms: _44  and  _45
REMARK   22  A    between atoms: _45  and  _46
REMARK   23  A    between atoms: _55  and  _57
REMARK   24  A    between atoms: _57  and  _58
REMARK   25  A    between atoms: _57  and  _60
REMARK   26  A    between atoms: _60  and  _61
REMARK   27  A    between atoms: _66  and  _68
REMARK   28  A    between atoms: _68  and  _69
REMARK   29  A    between atoms: _68  and  _71
REMARK   30  A    between atoms: _71  and  _72
REMARK   31  A    between atoms: _77  and  _78
REMARK   32  A    between atoms: _80  and  _82
REMARK   33  A    between atoms: _82  and  _83
REMARK   34  A    between atoms: _82  and  _85
REMARK   35  A    between atoms: _85  and  _86
REMARK   36  A    between atoms: _91  and  _93
REMARK   37  A    between atoms: _93  and  _94
REMARK   38  A    between atoms: _93  and  _96
REMARK   39  A    between atoms: _96  and  _97
REMARK   40  A    between atoms: _97  and  _98
REMARK   41  A    between atoms: _103  and  _105
REMARK   42  A    between atoms: _105  and  _106
REMARK   43  A    between atoms: _105  and  _108
REMARK   44  A    between atoms: _108  and  _109
REMARK   45  A    between atoms: _109  and  _110
REMARK   46  A    between atoms: _110  and  _111
REMARK   47  A    between atoms: _120  and  _122
REMARK   48  A    between atoms: _122  and  _123
REMARK   49  A    between atoms: _122  and  _125
REMARK   50  A    between atoms: _125  and  _126
REMARK   51  A    between atoms: _129  and  _131
REMARK   52  A    between atoms: _131  and  _132
REMARK   53  A    between atoms: _131  and  _134
REMARK   54  A    between atoms: _134  and  _135
REMARK   55  A    between atoms: _138  and  _140
REMARK   56  A    between atoms: _140  and  _141
REMARK   57  A    between atoms: _140  and  _143
REMARK   58  A    between atoms: _143  and  _144
REMARK   59  A    between atoms: _147  and  _149
REMARK   60  A    between atoms: _149  and  _150
REMARK   61  A    between atoms: _149  and  _152
REMARK   62  A    between atoms: _152  and  _153
REMARK   63  A    between atoms: _156  and  _158
REMARK   64  A    between atoms: _158  and  _159
REMARK   65  A    between atoms: _158  and  _161
REMARK   66  A    between atoms: _161  and  _162
REMARK   67  A    between atoms: _162  and  _163
REMARK   68  A    between atoms: _168  and  _170
REMARK   69  A    between atoms: _170  and  _171
REMARK   70  A    between atoms: _170  and  _173
REMARK   71  A    between atoms: _173  and  _174
REMARK   72  A    between atoms: _177  and  _179
REMARK   73  A    between atoms: _179  and  _180
REMARK   74  A    between atoms: _179  and  _182
REMARK   75  A    between atoms: _182  and  _183
REMARK   76  A    between atoms: _188  and  _190
REMARK   77  A    between atoms: _190  and  _191
REMARK   78  A    between atoms: _190  and  _193
REMARK   79  A    between atoms: _196  and  _198
REMARK   80  A    between atoms: _198  and  _199
REMARK   81  A    between atoms: _198  and  _201
REMARK   82  A    between atoms: _201  and  _202
REMARK   83  A    between atoms: _205  and  _207
REMARK   84  A    between atoms: _207  and  _208
REMARK   85  A    between atoms: _207  and  _210
REMARK   86  A    between atoms: _210  and  _211
REMARK   87  A    between atoms: _214  and  _216
REMARK   88  A    between atoms: _216  and  _217
REMARK   89  A    between atoms: _216  and  _219
REMARK   90  A    between atoms: _219  and  _220
REMARK   91  A    between atoms: _226  and  _228
REMARK   92  A    between atoms: _228  and  _229
REMARK   93  A    between atoms: _228  and  _231
REMARK   94  A    between atoms: _231  and  _232
REMARK   95  A    between atoms: _237  and  _239
REMARK   96  A    between atoms: _239  and  _240
REMARK   97  A    between atoms: _239  and  _242
REMARK   98  A    between atoms: _242  and  _243
REMARK   99  A    between atoms: _253  and  _255
REMARK  100  A    between atoms: _255  and  _256
REMARK  101  A    between atoms: _255  and  _258
REMARK  102  A    between atoms: _258  and  _259
REMARK  103  A    between atoms: _264  and  _265
REMARK  104  A    between atoms: _267  and  _269
REMARK  105  A    between atoms: _269  and  _270
REMARK  106  A    between atoms: _273  and  _275
REMARK  107  A    between atoms: _275  and  _276
REMARK  108  A    between atoms: _275  and  _278
REMARK  109  A    between atoms: _278  and  _279
REMARK  110  A    between atoms: _285  and  _287
REMARK  111  A    between atoms: _287  and  _288
REMARK  112  A    between atoms: _287  and  _290
REMARK  113  A    between atoms: _290  and  _291
REMARK  114  A    between atoms: _296  and  _298
REMARK  115  A    between atoms: _298  and  _299
REMARK  116  A    between atoms: _298  and  _301
REMARK  117  A    between atoms: _301  and  _302
REMARK  118  A    between atoms: _307  and  _309
REMARK  119  A    between atoms: _309  and  _310
REMARK  120  A    between atoms: _309  and  _312
REMARK  121  A    between atoms: _312  and  _313
REMARK  122  A    between atoms: _313  and  _314
REMARK  123  A    between atoms: _319  and  _321
REMARK  124  A    between atoms: _321  and  _322
REMARK  125  A    between atoms: _321  and  _324
REMARK  126  A    between atoms: _324  and  _325
REMARK  127  A    between atoms: _330  and  _331
REMARK  128  A    between atoms: _333  and  _335
REMARK  129  A    between atoms: _335  and  _336
REMARK  130  A    between atoms: _335  and  _338
REMARK  131  A    between atoms: _338  and  _339
REMARK  132  A    between atoms: _342  and  _344
REMARK  133  A    between atoms: _344  and  _345
REMARK  134  A    between atoms: _348  and  _350
REMARK  135  A    between atoms: _350  and  _351
REMARK  136  A    between atoms: _350  and  _353
REMARK  137  A    between atoms: _353  and  _354
REMARK  138  A    between atoms: _356  and  _358
REMARK  139  A    between atoms: _358  and  _359
REMARK  140  A    between atoms: _358  and  _361
REMARK  141  A    between atoms: _361  and  _362
REMARK  142  A    between atoms: _367  and  _368
REMARK  143  A    between atoms: _370  and  _372
REMARK  144  A    between atoms: _372  and  _373
REMARK  145  A    between atoms: _372  and  _375
REMARK  146  A    between atoms: _375  and  _376
REMARK  147  A    between atoms: _376  and  _377
REMARK  148  A    between atoms: _379  and  _381
REMARK  149  A    between atoms: _381  and  _382
REMARK  150  A    between atoms: _381  and  _384
REMARK  151  A    between atoms: _384  and  _385
REMARK  152  A    between atoms: _385  and  _386
REMARK  153  A    between atoms: _386  and  _387
REMARK  154  A    between atoms: _387  and  _388
REMARK  155  A    between atoms: _392  and  _394
REMARK  156  A    between atoms: _394  and  _395
REMARK  157  A    between atoms: _394  and  _397
REMARK  158  A    between atoms: _397  and  _398
REMARK  159  A    between atoms: _400  and  _402
REMARK  160  A    between atoms: _402  and  _403
REMARK  161  A    between atoms: _402  and  _405
REMARK  162  A    between atoms: _405  and  _406
REMARK  163  A    between atoms: _411  and  _412
REMARK  164  A    between atoms: _414  and  _416
REMARK  165  A    between atoms: _416  and  _417
REMARK  166  A    between atoms: _416  and  _419
REMARK  167  A    between atoms: _419  and  _420
REMARK  168  A    between atoms: _422  and  _424
REMARK  169  A    between atoms: _424  and  _425
REMARK  170  A    between atoms: _428  and  _430
REMARK  171  A    between atoms: _430  and  _431
REMARK  172  A    between atoms: _430  and  _433
REMARK  173  A    between atoms: _433  and  _434
REMARK  174  A    between atoms: _437  and  _439
REMARK  175  A    between atoms: _439  and  _440
REMARK  176  A    between atoms: _439  and  _442
REMARK  177  A    between atoms: _442  and  _443
REMARK  178  A    between atoms: _453  and  _455
REMARK  179  A    between atoms: _455  and  _456
REMARK  180  A    between atoms: _455  and  _458
REMARK  181  A    between atoms: _458  and  _459
REMARK  182  A    between atoms: _459  and  _460
REMARK  183  A    between atoms: _465  and  _467
REMARK  184  A    between atoms: _467  and  _468
REMARK  185  A    between atoms: _467  and  _470
REMARK  186  A    between atoms: _473  and  _475
REMARK  187  A    between atoms: _475  and  _476
REMARK  188  A    between atoms: _475  and  _478
REMARK  189  A    between atoms: _478  and  _479
REMARK  190  A    between atoms: _482  and  _484
REMARK  191  A    between atoms: _484  and  _485
REMARK  192  A    between atoms: _488  and  _490
REMARK  193  A    between atoms: _490  and  _491
REMARK  194  A    between atoms: _490  and  _493
REMARK  195  A    between atoms: _496  and  _498
REMARK  196  A    between atoms: _498  and  _499
REMARK  197  A    between atoms: _498  and  _501
REMARK  198  A    between atoms: _501  and  _502
REMARK  199  A    between atoms: _508  and  _510
REMARK  200  A    between atoms: _510  and  _511
REMARK  201  A    between atoms: _510  and  _513
REMARK  202  A    between atoms: _513  and  _514
REMARK  203  A    between atoms: _516  and  _518
REMARK  204  A    between atoms: _518  and  _519
REMARK  205  A    between atoms: _518  and  _521
REMARK  206  A    between atoms: _521  and  _522
REMARK  207  A    between atoms: _527  and  _529
REMARK  208  A    between atoms: _529  and  _530
REMARK  209  A    between atoms: _529  and  _532
REMARK  210  A    between atoms: _532  and  _533
REMARK  211  A    between atoms: _543  and  _545
REMARK  212  A    between atoms: _545  and  _546
REMARK  213  A    between atoms: _545  and  _548
REMARK  214  A    between atoms: _548  and  _549
REMARK  215  A    between atoms: _552  and  _554
REMARK  216  A    between atoms: _554  and  _555
REMARK  217  A    between atoms: _554  and  _557
REMARK  218  A    between atoms: _557  and  _558
REMARK  219  A    between atoms: _563  and  _564
REMARK  220  A    between atoms: _566  and  _568
REMARK  221  A    between atoms: _568  and  _569
REMARK  222  A    between atoms: _568  and  _571
REMARK  223  A    between atoms: _571  and  _572
REMARK  224  A    between atoms: _575  and  _577
REMARK  225  A    between atoms: _577  and  _578
REMARK  226  A    between atoms: _577  and  _580
REMARK  227  A    between atoms: _580  and  _581
REMARK  228  A    between atoms: _581  and  _582
REMARK  229  A    between atoms: _585  and  _587
REMARK  230  A    between atoms: _587  and  _588
REMARK  231  A    between atoms: _587  and  _590
REMARK  232  A    between atoms: _590  and  _591
REMARK  233  A    between atoms: _596  and  _598
REMARK  234  A    between atoms: _598  and  _599
REMARK  235  A    between atoms: _601  and  _603
REMARK  236  A    between atoms: _603  and  _604
REMARK  237  A    between atoms: _603  and  _606
REMARK  238  A    between atoms: _606  and  _607
REMARK  239  A    between atoms: _607  and  _608
REMARK  240  A    between atoms: _610  and  _612
REMARK  241  A    between atoms: _612  and  _613
REMARK  242  A    between atoms: _612  and  _615
REMARK  243  A    between atoms: _615  and  _616
REMARK  244  A    between atoms: _619  and  _621
REMARK  245  A    between atoms: _621  and  _622
REMARK  246  A    between atoms: _621  and  _624
REMARK  247  A    between atoms: _624  and  _625
REMARK  248  A    between atoms: _635  and  _637
REMARK  249  A    between atoms: _637  and  _638
REMARK  250  A    between atoms: _637  and  _640
REMARK  251  A    between atoms: _640  and  _641
REMARK  252  A    between atoms: _643  and  _645
REMARK  253  A    between atoms: _645  and  _646
REMARK  254  A    between atoms: _645  and  _648
REMARK  255  A    between atoms: _648  and  _649
REMARK  256  A    between atoms: _654  and  _656
REMARK  257  A    between atoms: _656  and  _657
REMARK  258  A    between atoms: _656  and  _659
REMARK  259  A    between atoms: _659  and  _660
REMARK  260  A    between atoms: _666  and  _668
REMARK  261  A    between atoms: _668  and  _669
REMARK  262  A    between atoms: _668  and  _671
REMARK  263  A    between atoms: _671  and  _672
REMARK  264  A    between atoms: _672  and  _673
REMARK  265  A    between atoms: _676  and  _678
REMARK  266  A    between atoms: _678  and  _679
REMARK  267  A    between atoms: _678  and  _681
REMARK  268  A    between atoms: _681  and  _682
REMARK  269  A    between atoms: _692  and  _694
REMARK  270  A    between atoms: _694  and  _695
REMARK  271  A    between atoms: _694  and  _697
REMARK  272  A    between atoms: _697  and  _698
REMARK  273  A    between atoms: _701  and  _703
REMARK  274  A    between atoms: _703  and  _704
REMARK  275  A    between atoms: _703  and  _706
REMARK  276  A    between atoms: _706  and  _707
REMARK  277  A    between atoms: _709  and  _711
REMARK  278  A    between atoms: _711  and  _712
REMARK  279  A    between atoms: _711  and  _714
REMARK  280  A    between atoms: _714  and  _715
REMARK  281  A    between atoms: _717  and  _719
REMARK  282  A    between atoms: _719  and  _720
REMARK  283  A    between atoms: _719  and  _722
REMARK  284  A    between atoms: _722  and  _723
REMARK                            x       y       z     vdW  Elec       q    Type
REMARK                         _______ _______ _______ _____ _____    ______ ____
ROOT
ATOM      1  O   HOH     1      -5.333   4.417  51.359  0.00  0.00    +0.000 OA
ENDROOT
TORSDOF 0
REMARK  Name = ../refined-set-2016/4qlk/4qlk_pocket.pdb
REMARK  284 active torsions:
REMARK  status: ('A' for Active; 'I' for Inactive)
REMARK    1  A    between atoms: _1  and  _3
REMARK    2  A    between atoms: _3  and  _4
REMARK    3  A    between atoms: _3  and  _6
REMARK    4  A    between atoms: _9  and  _11
REMARK    5  A    between atoms: _11  and  _12
REMARK    6  A    between atoms: _11  and  _14
REMARK    7  A    between atoms: _14  and  _15
REMARK    8  A    between atoms: _18  and  _20
REMARK    9  A    between atoms: _20  and  _21
REMARK   10  A    between atoms: _20  and  _23
REMARK   11  A    between atoms: _23  and  _24
REMARK   12  A    between atoms: _26  and  _28
REMARK   13  A    between atoms: _28  and  _29
REMARK   14  A    between atoms: _28  and  _31
REMARK   15  A    between atoms: _31  and  _32
REMARK   16  A    between atoms: _32  and  _33
REMARK   17  A    between atoms: _38  and  _40
REMARK   18  A    between atoms: _40  and  _41
REMARK   19  A    between atoms: _40  and  _43
REMARK   20  A    between atoms: _43  and  _44
REMARK   21  A    between atoms: _44  and  _45
REMARK   22  A    between atoms: _45  and  _46
REMARK   23  A    between atoms: _55  and  _57
REMARK   24  A    between atoms: _57  and  _58
REMARK   25  A    between atoms: _57  and  _60
REMARK   26  A    between atoms: _60  and  _61
REMARK   27  A    between atoms: _66  and  _68
REMARK   28  A    between atoms: _68  and  _69
REMARK   29  A    between atoms: _68  and  _71
REMARK   30  A    between atoms: _71  and  _72
REMARK   31  A    between atoms: _77  and  _78
REMARK   32  A    between atoms: _80  and  _82
REMARK   33  A    between atoms: _82  and  _83
REMARK   34  A    between atoms: _82  and  _85
REMARK   35  A    between atoms: _85  and  _86
REMARK   36  A    between atoms: _91  and  _93
REMARK   37  A    between atoms: _93  and  _94
REMARK   38  A    between atoms: _93  and  _96
REMARK   39  A    between atoms: _96  and  _97
REMARK   40  A    between atoms: _97  and  _98
REMARK   41  A    between atoms: _103  and  _105
REMARK   42  A    between atoms: _105  and  _106
REMARK   43  A    between atoms: _105  and  _108
REMARK   44  A    between atoms: _108  and  _109
REMARK   45  A    between atoms: _109  and  _110
REMARK   46  A    between atoms: _110  and  _111
REMARK   47  A    between atoms: _120  and  _122
REMARK   48  A    between atoms: _122  and  _123
REMARK   49  A    between atoms: _122  and  _125
REMARK   50  A    between atoms: _125  and  _126
REMARK   51  A    between atoms: _129  and  _131
REMARK   52  A    between atoms: _131  and  _132
REMARK   53  A    between atoms: _131  and  _134
REMARK   54  A    between atoms: _134  and  _135
REMARK   55  A    between atoms: _138  and  _140
REMARK   56  A    between atoms: _140  and  _141
REMARK   57  A    between atoms: _140  and  _143
REMARK   58  A    between atoms: _143  and  _144
REMARK   59  A    between atoms: _147  and  _149
REMARK   60  A    between atoms: _149  and  _150
REMARK   61  A    between atoms: _149  and  _152
REMARK   62  A    between atoms: _152  and  _153
REMARK   63  A    between atoms: _156  and  _158
REMARK   64  A    between atoms: _158  and  _159
REMARK   65  A    between atoms: _158  and  _161
REMARK   66  A    between atoms: _161  and  _162
REMARK   67  A    between atoms: _162  and  _163
REMARK   68  A    between atoms: _168  and  _170
REMARK   69  A    between atoms: _170  and  _171
REMARK   70  A    between atoms: _170  and  _173
REMARK   71  A    between atoms: _173  and  _174
REMARK   72  A    between atoms: _177  and  _179
REMARK   73  A    between atoms: _179  and  _180
REMARK   74  A    between atoms: _179  and  _182
REMARK   75  A    between atoms: _182  and  _183
REMARK   76  A    between atoms: _188  and  _190
REMARK   77  A    between atoms: _190  and  _191
REMARK   78  A    between atoms: _190  and  _193
REMARK   79  A    between atoms: _196  and  _198
REMARK   80  A    between atoms: _198  and  _199
REMARK   81  A    between atoms: _198  and  _201
REMARK   82  A    between atoms: _201  and  _202
REMARK   83  A    between atoms: _205  and  _207
REMARK   84  A    between atoms: _207  and  _208
REMARK   85  A    between atoms: _207  and  _210
REMARK   86  A    between atoms: _210  and  _211
REMARK   87  A    between atoms: _214  and  _216
REMARK   88  A    between atoms: _216  and  _217
REMARK   89  A    between atoms: _216  and  _219
REMARK   90  A    between atoms: _219  and  _220
REMARK   91  A    between atoms: _226  and  _228
REMARK   92  A    between atoms: _228  and  _229
REMARK   93  A    between atoms: _228  and  _231
REMARK   94  A    between atoms: _231  and  _232
REMARK   95  A    between atoms: _237  and  _239
REMARK   96  A    between atoms: _239  and  _240
REMARK   97  A    between atoms: _239  and  _242
REMARK   98  A    between atoms: _242  and  _243
REMARK   99  A    between atoms: _253  and  _255
REMARK  100  A    between atoms: _255  and  _256
REMARK  101  A    between atoms: _255  and  _258
REMARK  102  A    between atoms: _258  and  _259
REMARK  103  A    between atoms: _264  and  _265
REMARK  104  A    between atoms: _267  and  _269
REMARK  105  A    between atoms: _269  and  _270
REMARK  106  A    between atoms: _273  and  _275
REMARK  107  A    between atoms: _275  and  _276
REMARK  108  A    between atoms: _275  and  _278
REMARK  109  A    between atoms: _278  and  _279
REMARK  110  A    between atoms: _285  and  _287
REMARK  111  A    between atoms: _287  and  _288
REMARK  112  A    between atoms: _287  and  _290
REMARK  113  A    between atoms: _290  and  _291
REMARK  114  A    between atoms: _296  and  _298
REMARK  115  A    between atoms: _298  and  _299
REMARK  116  A    between atoms: _298  and  _301
REMARK  117  A    between atoms: _301  and  _302
REMARK  118  A    between atoms: _307  and  _309
REMARK  119  A    between atoms: _309  and  _310
REMARK  120  A    between atoms: _309  and  _312
REMARK  121  A    between atoms: _312  and  _313
REMARK  122  A    between atoms: _313  and  _314
REMARK  123  A    between atoms: _319  and  _321
REMARK  124  A    between atoms: _321  and  _322
REMARK  125  A    between atoms: _321  and  _324
REMARK  126  A    between atoms: _324  and  _325
REMARK  127  A    between atoms: _330  and  _331
REMARK  128  A    between atoms: _333  and  _335
REMARK  129  A    between atoms: _335  and  _336
REMARK  130  A    between atoms: _335  and  _338
REMARK  131  A    between atoms: _338  and  _339
REMARK  132  A    between atoms: _342  and  _344
REMARK  133  A    between atoms: _344  and  _345
REMARK  134  A    between atoms: _348  and  _350
REMARK  135  A    between atoms: _350  and  _351
REMARK  136  A    between atoms: _350  and  _353
REMARK  137  A    between atoms: _353  and  _354
REMARK  138  A    between atoms: _356  and  _358
REMARK  139  A    between atoms: _358  and  _359
REMARK  140  A    between atoms: _358  and  _361
REMARK  141  A    between atoms: _361  and  _362
REMARK  142  A    between atoms: _367  and  _368
REMARK  143  A    between atoms: _370  and  _372
REMARK  144  A    between atoms: _372  and  _373
REMARK  145  A    between atoms: _372  and  _375
REMARK  146  A    between atoms: _375  and  _376
REMARK  147  A    between atoms: _376  and  _377
REMARK  148  A    between atoms: _379  and  _381
REMARK  149  A    between atoms: _381  and  _382
REMARK  150  A    between atoms: _381  and  _384
REMARK  151  A    between atoms: _384  and  _385
REMARK  152  A    between atoms: _385  and  _386
REMARK  153  A    between atoms: _386  and  _387
REMARK  154  A    between atoms: _387  and  _388
REMARK  155  A    between atoms: _392  and  _394
REMARK  156  A    between atoms: _394  and  _395
REMARK  157  A    between atoms: _394  and  _397
REMARK  158  A    between atoms: _397  and  _398
REMARK  159  A    between atoms: _400  and  _402
REMARK  160  A    between atoms: _402  and  _403
REMARK  161  A    between atoms: _402  and  _405
REMARK  162  A    between atoms: _405  and  _406
REMARK  163  A    between atoms: _411  and  _412
REMARK  164  A    between atoms: _414  and  _416
REMARK  165  A    between atoms: _416  and  _417
REMARK  166  A    between atoms: _416  and  _419
REMARK  167  A    between atoms: _419  and  _420
REMARK  168  A    between atoms: _422  and  _424
REMARK  169  A    between atoms: _424  and  _425
REMARK  170  A    between atoms: _428  and  _430
REMARK  171  A    between atoms: _430  and  _431
REMARK  172  A    between atoms: _430  and  _433
REMARK  173  A    between atoms: _433  and  _434
REMARK  174  A    between atoms: _437  and  _439
REMARK  175  A    between atoms: _439  and  _440
REMARK  176  A    between atoms: _439  and  _442
REMARK  177  A    between atoms: _442  and  _443
REMARK  178  A    between atoms: _453  and  _455
REMARK  179  A    between atoms: _455  and  _456
REMARK  180  A    between atoms: _455  and  _458
REMARK  181  A    between atoms: _458  and  _459
REMARK  182  A    between atoms: _459  and  _460
REMARK  183  A    between atoms: _465  and  _467
REMARK  184  A    between atoms: _467  and  _468
REMARK  185  A    between atoms: _467  and  _470
REMARK  186  A    between atoms: _473  and  _475
REMARK  187  A    between atoms: _475  and  _476
REMARK  188  A    between atoms: _475  and  _478
REMARK  189  A    between atoms: _478  and  _479
REMARK  190  A    between atoms: _482  and  _484
REMARK  191  A    between atoms: _484  and  _485
REMARK  192  A    between atoms: _488  and  _490
REMARK  193  A    between atoms: _490  and  _491
REMARK  194  A    between atoms: _490  and  _493
REMARK  195  A    between atoms: _496  and  _498
REMARK  196  A    between atoms: _498  and  _499
REMARK  197  A    between atoms: _498  and  _501
REMARK  198  A    between atoms: _501  and  _502
REMARK  199  A    between atoms: _508  and  _510
REMARK  200  A    between atoms: _510  and  _511
REMARK  201  A    between atoms: _510  and  _513
REMARK  202  A    between atoms: _513  and  _514
REMARK  203  A    between atoms: _516  and  _518
REMARK  204  A    between atoms: _518  and  _519
REMARK  205  A    between atoms: _518  and  _521
REMARK  206  A    between atoms: _521  and  _522
REMARK  207  A    between atoms: _527  and  _529
REMARK  208  A    between atoms: _529  and  _530
REMARK  209  A    between atoms: _529  and  _532
REMARK  210  A    between atoms: _532  and  _533
REMARK  211  A    between atoms: _543  and  _545
REMARK  212  A    between atoms: _545  and  _546
REMARK  213  A    between atoms: _545  and  _548
REMARK  214  A    between atoms: _548  and  _549
REMARK  215  A    between atoms: _552  and  _554
REMARK  216  A    between atoms: _554  and  _555
REMARK  217  A    between atoms: _554  and  _557
REMARK  218  A    between atoms: _557  and  _558
REMARK  219  A    between atoms: _563  and  _564
REMARK  220  A    between atoms: _566  and  _568
REMARK  221  A    between atoms: _568  and  _569
REMARK  222  A    between atoms: _568  and  _571
REMARK  223  A    between atoms: _571  and  _572
REMARK  224  A    between atoms: _575  and  _577
REMARK  225  A    between atoms: _577  and  _578
REMARK  226  A    between atoms: _577  and  _580
REMARK  227  A    between atoms: _580  and  _581
REMARK  228  A    between atoms: _581  and  _582
REMARK  229  A    between atoms: _585  and  _587
REMARK  230  A    between atoms: _587  and  _588
REMARK  231  A    between atoms: _587  and  _590
REMARK  232  A    between atoms: _590  and  _591
REMARK  233  A    between atoms: _596  and  _598
REMARK  234  A    between atoms: _598  and  _599
REMARK  235  A    between atoms: _601  and  _603
REMARK  236  A    between atoms: _603  and  _604
REMARK  237  A    between atoms: _603  and  _606
REMARK  238  A    between atoms: _606  and  _607
REMARK  239  A    between atoms: _607  and  _608
REMARK  240  A    between atoms: _610  and  _612
REMARK  241  A    between atoms: _612  and  _613
REMARK  242  A    between atoms: _612  and  _615
REMARK  243  A    between atoms: _615  and  _616
REMARK  244  A    between atoms: _619  and  _621
REMARK  245  A    between atoms: _621  and  _622
REMARK  246  A    between atoms: _621  and  _624
REMARK  247  A    between atoms: _624  and  _625
REMARK  248  A    between atoms: _635  and  _637
REMARK  249  A    between atoms: _637  and  _638
REMARK  250  A    between atoms: _637  and  _640
REMARK  251  A    between atoms: _640  and  _641
REMARK  252  A    between atoms: _643  and  _645
REMARK  253  A    between atoms: _645  and  _646
REMARK  254  A    between atoms: _645  and  _648
REMARK  255  A    between atoms: _648  and  _649
REMARK  256  A    between atoms: _654  and  _656
REMARK  257  A    between atoms: _656  and  _657
REMARK  258  A    between atoms: _656  and  _659
REMARK  259  A    between atoms: _659  and  _660
REMARK  260  A    between atoms: _666  and  _668
REMARK  261  A    between atoms: _668  and  _669
REMARK  262  A    between atoms: _668  and  _671
REMARK  263  A    between atoms: _671  and  _672
REMARK  264  A    between atoms: _672  and  _673
REMARK  265  A    between atoms: _676  and  _678
REMARK  266  A    between atoms: _678  and  _679
REMARK  267  A    between atoms: _678  and  _681
REMARK  268  A    between atoms: _681  and  _682
REMARK  269  A    between atoms: _692  and  _694
REMARK  270  A    between atoms: _694  and  _695
REMARK  271  A    between atoms: _694  and  _697
REMARK  272  A    between atoms: _697  and  _698
REMARK  273  A    between atoms: _701  and  _703
REMARK  274  A    between atoms: _703  and  _704
REMARK  275  A    between atoms: _703  and  _706
REMARK  276  A    between atoms: _706  and  _707
REMARK  277  A    between atoms: _709  and  _711
REMARK  278  A    between atoms: _711  and  _712
REMARK  279  A    between atoms: _711  and  _714
REMARK  280  A    between atoms: _714  and  _715
REMARK  281  A    between atoms: _717  and  _719
REMARK  282  A    between atoms: _719  and  _720
REMARK  283  A    between atoms: _719  and  _722
REMARK  284  A    between atoms: _722  and  _723
REMARK                            x       y       z     vdW  Elec       q    Type
REMARK                         _______ _______ _______ _____ _____    ______ ____
ROOT
ATOM      1  O   HOH     1      -0.724   2.058  47.135  0.00  0.00    +0.000 OA
ENDROOT
TORSDOF 0
REMARK  Name = ../refined-set-2016/4qlk/4qlk_pocket.pdb
REMARK  284 active torsions:
REMARK  status: ('A' for Active; 'I' for Inactive)
REMARK    1  A    between atoms: _1  and  _3
REMARK    2  A    between atoms: _3  and  _4
REMARK    3  A    between atoms: _3  and  _6
REMARK    4  A    between atoms: _9  and  _11
REMARK    5  A    between atoms: _11  and  _12
REMARK    6  A    between atoms: _11  and  _14
REMARK    7  A    between atoms: _14  and  _15
REMARK    8  A    between atoms: _18  and  _20
REMARK    9  A    between atoms: _20  and  _21
REMARK   10  A    between atoms: _20  and  _23
REMARK   11  A    between atoms: _23  and  _24
REMARK   12  A    between atoms: _26  and  _28
REMARK   13  A    between atoms: _28  and  _29
REMARK   14  A    between atoms: _28  and  _31
REMARK   15  A    between atoms: _31  and  _32
REMARK   16  A    between atoms: _32  and  _33
REMARK   17  A    between atoms: _38  and  _40
REMARK   18  A    between atoms: _40  and  _41
REMARK   19  A    between atoms: _40  and  _43
REMARK   20  A    between atoms: _43  and  _44
REMARK   21  A    between atoms: _44  and  _45
REMARK   22  A    between atoms: _45  and  _46
REMARK   23  A    between atoms: _55  and  _57
REMARK   24  A    between atoms: _57  and  _58
REMARK   25  A    between atoms: _57  and  _60
REMARK   26  A    between atoms: _60  and  _61
REMARK   27  A    between atoms: _66  and  _68
REMARK   28  A    between atoms: _68  and  _69
REMARK   29  A    between atoms: _68  and  _71
REMARK   30  A    between atoms: _71  and  _72
REMARK   31  A    between atoms: _77  and  _78
REMARK   32  A    between atoms: _80  and  _82
REMARK   33  A    between atoms: _82  and  _83
REMARK   34  A    between atoms: _82  and  _85
REMARK   35  A    between atoms: _85  and  _86
REMARK   36  A    between atoms: _91  and  _93
REMARK   37  A    between atoms: _93  and  _94
REMARK   38  A    between atoms: _93  and  _96
REMARK   39  A    between atoms: _96  and  _97
REMARK   40  A    between atoms: _97  and  _98
REMARK   41  A    between atoms: _103  and  _105
REMARK   42  A    between atoms: _105  and  _106
REMARK   43  A    between atoms: _105  and  _108
REMARK   44  A    between atoms: _108  and  _109
REMARK   45  A    between atoms: _109  and  _110
REMARK   46  A    between atoms: _110  and  _111
REMARK   47  A    between atoms: _120  and  _122
REMARK   48  A    between atoms: _122  and  _123
REMARK   49  A    between atoms: _122  and  _125
REMARK   50  A    between atoms: _125  and  _126
REMARK   51  A    between atoms: _129  and  _131
REMARK   52  A    between atoms: _131  and  _132
REMARK   53  A    between atoms: _131  and  _134
REMARK   54  A    between atoms: _134  and  _135
REMARK   55  A    between atoms: _138  and  _140
REMARK   56  A    between atoms: _140  and  _141
REMARK   57  A    between atoms: _140  and  _143
REMARK   58  A    between atoms: _143  and  _144
REMARK   59  A    between atoms: _147  and  _149
REMARK   60  A    between atoms: _149  and  _150
REMARK   61  A    between atoms: _149  and  _152
REMARK   62  A    between atoms: _152  and  _153
REMARK   63  A    between atoms: _156  and  _158
REMARK   64  A    between atoms: _158  and  _159
REMARK   65  A    between atoms: _158  and  _161
REMARK   66  A    between atoms: _161  and  _162
REMARK   67  A    between atoms: _162  and  _163
REMARK   68  A    between atoms: _168  and  _170
REMARK   69  A    between atoms: _170  and  _171
REMARK   70  A    between atoms: _170  and  _173
REMARK   71  A    between atoms: _173  and  _174
REMARK   72  A    between atoms: _177  and  _179
REMARK   73  A    between atoms: _179  and  _180
REMARK   74  A    between atoms: _179  and  _182
REMARK   75  A    between atoms: _182  and  _183
REMARK   76  A    between atoms: _188  and  _190
REMARK   77  A    between atoms: _190  and  _191
REMARK   78  A    between atoms: _190  and  _193
REMARK   79  A    between atoms: _196  and  _198
REMARK   80  A    between atoms: _198  and  _199
REMARK   81  A    between atoms: _198  and  _201
REMARK   82  A    between atoms: _201  and  _202
REMARK   83  A    between atoms: _205  and  _207
REMARK   84  A    between atoms: _207  and  _208
REMARK   85  A    between atoms: _207  and  _210
REMARK   86  A    between atoms: _210  and  _211
REMARK   87  A    between atoms: _214  and  _216
REMARK   88  A    between atoms: _216  and  _217
REMARK   89  A    between atoms: _216  and  _219
REMARK   90  A    between atoms: _219  and  _220
REMARK   91  A    between atoms: _226  and  _228
REMARK   92  A    between atoms: _228  and  _229
REMARK   93  A    between atoms: _228  and  _231
REMARK   94  A    between atoms: _231  and  _232
REMARK   95  A    between atoms: _237  and  _239
REMARK   96  A    between atoms: _239  and  _240
REMARK   97  A    between atoms: _239  and  _242
REMARK   98  A    between atoms: _242  and  _243
REMARK   99  A    between atoms: _253  and  _255
REMARK  100  A    between atoms: _255  and  _256
REMARK  101  A    between atoms: _255  and  _258
REMARK  102  A    between atoms: _258  and  _259
REMARK  103  A    between atoms: _264  and  _265
REMARK  104  A    between atoms: _267  and  _269
REMARK  105  A    between atoms: _269  and  _270
REMARK  106  A    between atoms: _273  and  _275
REMARK  107  A    between atoms: _275  and  _276
REMARK  108  A    between atoms: _275  and  _278
REMARK  109  A    between atoms: _278  and  _279
REMARK  110  A    between atoms: _285  and  _287
REMARK  111  A    between atoms: _287  and  _288
REMARK  112  A    between atoms: _287  and  _290
REMARK  113  A    between atoms: _290  and  _291
REMARK  114  A    between atoms: _296  and  _298
REMARK  115  A    between atoms: _298  and  _299
REMARK  116  A    between atoms: _298  and  _301
REMARK  117  A    between atoms: _301  and  _302
REMARK  118  A    between atoms: _307  and  _309
REMARK  119  A    between atoms: _309  and  _310
REMARK  120  A    between atoms: _309  and  _312
REMARK  121  A    between atoms: _312  and  _313
REMARK  122  A    between atoms: _313  and  _314
REMARK  123  A    between atoms: _319  and  _321
REMARK  124  A    between atoms: _321  and  _322
REMARK  125  A    between atoms: _321  and  _324
REMARK  126  A    between atoms: _324  and  _325
REMARK  127  A    between atoms: _330  and  _331
REMARK  128  A    between atoms: _333  and  _335
REMARK  129  A    between atoms: _335  and  _336
REMARK  130  A    between atoms: _335  and  _338
REMARK  131  A    between atoms: _338  and  _339
REMARK  132  A    between atoms: _342  and  _344
REMARK  133  A    between atoms: _344  and  _345
REMARK  134  A    between atoms: _348  and  _350
REMARK  135  A    between atoms: _350  and  _351
REMARK  136  A    between atoms: _350  and  _353
REMARK  137  A    between atoms: _353  and  _354
REMARK  138  A    between atoms: _356  and  _358
REMARK  139  A    between atoms: _358  and  _359
REMARK  140  A    between atoms: _358  and  _361
REMARK  141  A    between atoms: _361  and  _362
REMARK  142  A    between atoms: _367  and  _368
REMARK  143  A    between atoms: _370  and  _372
REMARK  144  A    between atoms: _372  and  _373
REMARK  145  A    between atoms: _372  and  _375
REMARK  146  A    between atoms: _375  and  _376
REMARK  147  A    between atoms: _376  and  _377
REMARK  148  A    between atoms: _379  and  _381
REMARK  149  A    between atoms: _381  and  _382
REMARK  150  A    between atoms: _381  and  _384
REMARK  151  A    between atoms: _384  and  _385
REMARK  152  A    between atoms: _385  and  _386
REMARK  153  A    between atoms: _386  and  _387
REMARK  154  A    between atoms: _387  and  _388
REMARK  155  A    between atoms: _392  and  _394
REMARK  156  A    between atoms: _394  and  _395
REMARK  157  A    between atoms: _394  and  _397
REMARK  158  A    between atoms: _397  and  _398
REMARK  159  A    between atoms: _400  and  _402
REMARK  160  A    between atoms: _402  and  _403
REMARK  161  A    between atoms: _402  and  _405
REMARK  162  A    between atoms: _405  and  _406
REMARK  163  A    between atoms: _411  and  _412
REMARK  164  A    between atoms: _414  and  _416
REMARK  165  A    between atoms: _416  and  _417
REMARK  166  A    between atoms: _416  and  _419
REMARK  167  A    between atoms: _419  and  _420
REMARK  168  A    between atoms: _422  and  _424
REMARK  169  A    between atoms: _424  and  _425
REMARK  170  A    between atoms: _428  and  _430
REMARK  171  A    between atoms: _430  and  _431
REMARK  172  A    between atoms: _430  and  _433
REMARK  173  A    between atoms: _433  and  _434
REMARK  174  A    between atoms: _437  and  _439
REMARK  175  A    between atoms: _439  and  _440
REMARK  176  A    between atoms: _439  and  _442
REMARK  177  A    between atoms: _442  and  _443
REMARK  178  A    between atoms: _453  and  _455
REMARK  179  A    between atoms: _455  and  _456
REMARK  180  A    between atoms: _455  and  _458
REMARK  181  A    between atoms: _458  and  _459
REMARK  182  A    between atoms: _459  and  _460
REMARK  183  A    between atoms: _465  and  _467
REMARK  184  A    between atoms: _467  and  _468
REMARK  185  A    between atoms: _467  and  _470
REMARK  186  A    between atoms: _473  and  _475
REMARK  187  A    between atoms: _475  and  _476
REMARK  188  A    between atoms: _475  and  _478
REMARK  189  A    between atoms: _478  and  _479
REMARK  190  A    between atoms: _482  and  _484
REMARK  191  A    between atoms: _484  and  _485
REMARK  192  A    between atoms: _488  and  _490
REMARK  193  A    between atoms: _490  and  _491
REMARK  194  A    between atoms: _490  and  _493
REMARK  195  A    between atoms: _496  and  _498
REMARK  196  A    between atoms: _498  and  _499
REMARK  197  A    between atoms: _498  and  _501
REMARK  198  A    between atoms: _501  and  _502
REMARK  199  A    between atoms: _508  and  _510
REMARK  200  A    between atoms: _510  and  _511
REMARK  201  A    between atoms: _510  and  _513
REMARK  202  A    between atoms: _513  and  _514
REMARK  203  A    between atoms: _516  and  _518
REMARK  204  A    between atoms: _518  and  _519
REMARK  205  A    between atoms: _518  and  _521
REMARK  206  A    between atoms: _521  and  _522
REMARK  207  A    between atoms: _527  and  _529
REMARK  208  A    between atoms: _529  and  _530
REMARK  209  A    between atoms: _529  and  _532
REMARK  210  A    between atoms: _532  and  _533
REMARK  211  A    between atoms: _543  and  _545
REMARK  212  A    between atoms: _545  and  _546
REMARK  213  A    between atoms: _545  and  _548
REMARK  214  A    between atoms: _548  and  _549
REMARK  215  A    between atoms: _552  and  _554
REMARK  216  A    between atoms: _554  and  _555
REMARK  217  A    between atoms: _554  and  _557
REMARK  218  A    between atoms: _557  and  _558
REMARK  219  A    between atoms: _563  and  _564
REMARK  220  A    between atoms: _566  and  _568
REMARK  221  A    between atoms: _568  and  _569
REMARK  222  A    between atoms: _568  and  _571
REMARK  223  A    between atoms: _571  and  _572
REMARK  224  A    between atoms: _575  and  _577
REMARK  225  A    between atoms: _577  and  _578
REMARK  226  A    between atoms: _577  and  _580
REMARK  227  A    between atoms: _580  and  _581
REMARK  228  A    between atoms: _581  and  _582
REMARK  229  A    between atoms: _585  and  _587
REMARK  230  A    between atoms: _587  and  _588
REMARK  231  A    between atoms: _587  and  _590
REMARK  232  A    between atoms: _590  and  _591
REMARK  233  A    between atoms: _596  and  _598
REMARK  234  A    between atoms: _598  and  _599
REMARK  235  A    between atoms: _601  and  _603
REMARK  236  A    between atoms: _603  and  _604
REMARK  237  A    between atoms: _603  and  _606
REMARK  238  A    between atoms: _606  and  _607
REMARK  239  A    between atoms: _607  and  _608
REMARK  240  A    between atoms: _610  and  _612
REMARK  241  A    between atoms: _612  and  _613
REMARK  242  A    between atoms: _612  and  _615
REMARK  243  A    between atoms: _615  and  _616
REMARK  244  A    between atoms: _619  and  _621
REMARK  245  A    between atoms: _621  and  _622
REMARK  246  A    between atoms: _621  and  _624
REMARK  247  A    between atoms: _624  and  _625
REMARK  248  A    between atoms: _635  and  _637
REMARK  249  A    between atoms: _637  and  _638
REMARK  250  A    between atoms: _637  and  _640
REMARK  251  A    between atoms: _640  and  _641
REMARK  252  A    between atoms: _643  and  _645
REMARK  253  A    between atoms: _645  and  _646
REMARK  254  A    between atoms: _645  and  _648
REMARK  255  A    between atoms: _648  and  _649
REMARK  256  A    between atoms: _654  and  _656
REMARK  257  A    between atoms: _656  and  _657
REMARK  258  A    between atoms: _656  and  _659
REMARK  259  A    between atoms: _659  and  _660
REMARK  260  A    between atoms: _666  and  _668
REMARK  261  A    between atoms: _668  and  _669
REMARK  262  A    between atoms: _668  and  _671
REMARK  263  A    between atoms: _671  and  _672
REMARK  264  A    between atoms: _672  and  _673
REMARK  265  A    between atoms: _676  and  _678
REMARK  266  A    between atoms: _678  and  _679
REMARK  267  A    between atoms: _678  and  _681
REMARK  268  A    between atoms: _681  and  _682
REMARK  269  A    between atoms: _692  and  _694
REMARK  270  A    between atoms: _694  and  _695
REMARK  271  A    between atoms: _694  and  _697
REMARK  272  A    between atoms: _697  and  _698
REMARK  273  A    between atoms: _701  and  _703
REMARK  274  A    between atoms: _703  and  _704
REMARK  275  A    between atoms: _703  and  _706
REMARK  276  A    between atoms: _706  and  _707
REMARK  277  A    between atoms: _709  and  _711
REMARK  278  A    between atoms: _711  and  _712
REMARK  279  A    between atoms: _711  and  _714
REMARK  280  A    between atoms: _714  and  _715
REMARK  281  A    between atoms: _717  and  _719
REMARK  282  A    between atoms: _719  and  _720
REMARK  283  A    between atoms: _719  and  _722
REMARK  284  A    between atoms: _722  and  _723
REMARK                            x       y       z     vdW  Elec       q    Type
REMARK                         _______ _______ _______ _____ _____    ______ ____
ROOT
ATOM      1  O   HOH     1      -2.050   0.779  45.026  0.00  0.00    +0.000 OA
ENDROOT
TORSDOF 0
REMARK  Name = ../refined-set-2016/4qlk/4qlk_pocket.pdb
REMARK  284 active torsions:
REMARK  status: ('A' for Active; 'I' for Inactive)
REMARK    1  A    between atoms: _1  and  _3
REMARK    2  A    between atoms: _3  and  _4
REMARK    3  A    between atoms: _3  and  _6
REMARK    4  A    between atoms: _9  and  _11
REMARK    5  A    between atoms: _11  and  _12
REMARK    6  A    between atoms: _11  and  _14
REMARK    7  A    between atoms: _14  and  _15
REMARK    8  A    between atoms: _18  and  _20
REMARK    9  A    between atoms: _20  and  _21
REMARK   10  A    between atoms: _20  and  _23
REMARK   11  A    between atoms: _23  and  _24
REMARK   12  A    between atoms: _26  and  _28
REMARK   13  A    between atoms: _28  and  _29
REMARK   14  A    between atoms: _28  and  _31
REMARK   15  A    between atoms: _31  and  _32
REMARK   16  A    between atoms: _32  and  _33
REMARK   17  A    between atoms: _38  and  _40
REMARK   18  A    between atoms: _40  and  _41
REMARK   19  A    between atoms: _40  and  _43
REMARK   20  A    between atoms: _43  and  _44
REMARK   21  A    between atoms: _44  and  _45
REMARK   22  A    between atoms: _45  and  _46
REMARK   23  A    between atoms: _55  and  _57
REMARK   24  A    between atoms: _57  and  _58
REMARK   25  A    between atoms: _57  and  _60
REMARK   26  A    between atoms: _60  and  _61
REMARK   27  A    between atoms: _66  and  _68
REMARK   28  A    between atoms: _68  and  _69
REMARK   29  A    between atoms: _68  and  _71
REMARK   30  A    between atoms: _71  and  _72
REMARK   31  A    between atoms: _77  and  _78
REMARK   32  A    between atoms: _80  and  _82
REMARK   33  A    between atoms: _82  and  _83
REMARK   34  A    between atoms: _82  and  _85
REMARK   35  A    between atoms: _85  and  _86
REMARK   36  A    between atoms: _91  and  _93
REMARK   37  A    between atoms: _93  and  _94
REMARK   38  A    between atoms: _93  and  _96
REMARK   39  A    between atoms: _96  and  _97
REMARK   40  A    between atoms: _97  and  _98
REMARK   41  A    between atoms: _103  and  _105
REMARK   42  A    between atoms: _105  and  _106
REMARK   43  A    between atoms: _105  and  _108
REMARK   44  A    between atoms: _108  and  _109
REMARK   45  A    between atoms: _109  and  _110
REMARK   46  A    between atoms: _110  and  _111
REMARK   47  A    between atoms: _120  and  _122
REMARK   48  A    between atoms: _122  and  _123
REMARK   49  A    between atoms: _122  and  _125
REMARK   50  A    between atoms: _125  and  _126
REMARK   51  A    between atoms: _129  and  _131
REMARK   52  A    between atoms: _131  and  _132
REMARK   53  A    between atoms: _131  and  _134
REMARK   54  A    between atoms: _134  and  _135
REMARK   55  A    between atoms: _138  and  _140
REMARK   56  A    between atoms: _140  and  _141
REMARK   57  A    between atoms: _140  and  _143
REMARK   58  A    between atoms: _143  and  _144
REMARK   59  A    between atoms: _147  and  _149
REMARK   60  A    between atoms: _149  and  _150
REMARK   61  A    between atoms: _149  and  _152
REMARK   62  A    between atoms: _152  and  _153
REMARK   63  A    between atoms: _156  and  _158
REMARK   64  A    between atoms: _158  and  _159
REMARK   65  A    between atoms: _158  and  _161
REMARK   66  A    between atoms: _161  and  _162
REMARK   67  A    between atoms: _162  and  _163
REMARK   68  A    between atoms: _168  and  _170
REMARK   69  A    between atoms: _170  and  _171
REMARK   70  A    between atoms: _170  and  _173
REMARK   71  A    between atoms: _173  and  _174
REMARK   72  A    between atoms: _177  and  _179
REMARK   73  A    between atoms: _179  and  _180
REMARK   74  A    between atoms: _179  and  _182
REMARK   75  A    between atoms: _182  and  _183
REMARK   76  A    between atoms: _188  and  _190
REMARK   77  A    between atoms: _190  and  _191
REMARK   78  A    between atoms: _190  and  _193
REMARK   79  A    between atoms: _196  and  _198
REMARK   80  A    between atoms: _198  and  _199
REMARK   81  A    between atoms: _198  and  _201
REMARK   82  A    between atoms: _201  and  _202
REMARK   83  A    between atoms: _205  and  _207
REMARK   84  A    between atoms: _207  and  _208
REMARK   85  A    between atoms: _207  and  _210
REMARK   86  A    between atoms: _210  and  _211
REMARK   87  A    between atoms: _214  and  _216
REMARK   88  A    between atoms: _216  and  _217
REMARK   89  A    between atoms: _216  and  _219
REMARK   90  A    between atoms: _219  and  _220
REMARK   91  A    between atoms: _226  and  _228
REMARK   92  A    between atoms: _228  and  _229
REMARK   93  A    between atoms: _228  and  _231
REMARK   94  A    between atoms: _231  and  _232
REMARK   95  A    between atoms: _237  and  _239
REMARK   96  A    between atoms: _239  and  _240
REMARK   97  A    between atoms: _239  and  _242
REMARK   98  A    between atoms: _242  and  _243
REMARK   99  A    between atoms: _253  and  _255
REMARK  100  A    between atoms: _255  and  _256
REMARK  101  A    between atoms: _255  and  _258
REMARK  102  A    between atoms: _258  and  _259
REMARK  103  A    between atoms: _264  and  _265
REMARK  104  A    between atoms: _267  and  _269
REMARK  105  A    between atoms: _269  and  _270
REMARK  106  A    between atoms: _273  and  _275
REMARK  107  A    between atoms: _275  and  _276
REMARK  108  A    between atoms: _275  and  _278
REMARK  109  A    between atoms: _278  and  _279
REMARK  110  A    between atoms: _285  and  _287
REMARK  111  A    between atoms: _287  and  _288
REMARK  112  A    between atoms: _287  and  _290
REMARK  113  A    between atoms: _290  and  _291
REMARK  114  A    between atoms: _296  and  _298
REMARK  115  A    between atoms: _298  and  _299
REMARK  116  A    between atoms: _298  and  _301
REMARK  117  A    between atoms: _301  and  _302
REMARK  118  A    between atoms: _307  and  _309
REMARK  119  A    between atoms: _309  and  _310
REMARK  120  A    between atoms: _309  and  _312
REMARK  121  A    between atoms: _312  and  _313
REMARK  122  A    between atoms: _313  and  _314
REMARK  123  A    between atoms: _319  and  _321
REMARK  124  A    between atoms: _321  and  _322
REMARK  125  A    between atoms: _321  and  _324
REMARK  126  A    between atoms: _324  and  _325
REMARK  127  A    between atoms: _330  and  _331
REMARK  128  A    between atoms: _333  and  _335
REMARK  129  A    between atoms: _335  and  _336
REMARK  130  A    between atoms: _335  and  _338
REMARK  131  A    between atoms: _338  and  _339
REMARK  132  A    between atoms: _342  and  _344
REMARK  133  A    between atoms: _344  and  _345
REMARK  134  A    between atoms: _348  and  _350
REMARK  135  A    between atoms: _350  and  _351
REMARK  136  A    between atoms: _350  and  _353
REMARK  137  A    between atoms: _353  and  _354
REMARK  138  A    between atoms: _356  and  _358
REMARK  139  A    between atoms: _358  and  _359
REMARK  140  A    between atoms: _358  and  _361
REMARK  141  A    between atoms: _361  and  _362
REMARK  142  A    between atoms: _367  and  _368
REMARK  143  A    between atoms: _370  and  _372
REMARK  144  A    between atoms: _372  and  _373
REMARK  145  A    between atoms: _372  and  _375
REMARK  146  A    between atoms: _375  and  _376
REMARK  147  A    between atoms: _376  and  _377
REMARK  148  A    between atoms: _379  and  _381
REMARK  149  A    between atoms: _381  and  _382
REMARK  150  A    between atoms: _381  and  _384
REMARK  151  A    between atoms: _384  and  _385
REMARK  152  A    between atoms: _385  and  _386
REMARK  153  A    between atoms: _386  and  _387
REMARK  154  A    between atoms: _387  and  _388
REMARK  155  A    between atoms: _392  and  _394
REMARK  156  A    between atoms: _394  and  _395
REMARK  157  A    between atoms: _394  and  _397
REMARK  158  A    between atoms: _397  and  _398
REMARK  159  A    between atoms: _400  and  _402
REMARK  160  A    between atoms: _402  and  _403
REMARK  161  A    between atoms: _402  and  _405
REMARK  162  A    between atoms: _405  and  _406
REMARK  163  A    between atoms: _411  and  _412
REMARK  164  A    between atoms: _414  and  _416
REMARK  165  A    between atoms: _416  and  _417
REMARK  166  A    between atoms: _416  and  _419
REMARK  167  A    between atoms: _419  and  _420
REMARK  168  A    between atoms: _422  and  _424
REMARK  169  A    between atoms: _424  and  _425
REMARK  170  A    between atoms: _428  and  _430
REMARK  171  A    between atoms: _430  and  _431
REMARK  172  A    between atoms: _430  and  _433
REMARK  173  A    between atoms: _433  and  _434
REMARK  174  A    between atoms: _437  and  _439
REMARK  175  A    between atoms: _439  and  _440
REMARK  176  A    between atoms: _439  and  _442
REMARK  177  A    between atoms: _442  and  _443
REMARK  178  A    between atoms: _453  and  _455
REMARK  179  A    between atoms: _455  and  _456
REMARK  180  A    between atoms: _455  and  _458
REMARK  181  A    between atoms: _458  and  _459
REMARK  182  A    between atoms: _459  and  _460
REMARK  183  A    between atoms: _465  and  _467
REMARK  184  A    between atoms: _467  and  _468
REMARK  185  A    between atoms: _467  and  _470
REMARK  186  A    between atoms: _473  and  _475
REMARK  187  A    between atoms: _475  and  _476
REMARK  188  A    between atoms: _475  and  _478
REMARK  189  A    between atoms: _478  and  _479
REMARK  190  A    between atoms: _482  and  _484
REMARK  191  A    between atoms: _484  and  _485
REMARK  192  A    between atoms: _488  and  _490
REMARK  193  A    between atoms: _490  and  _491
REMARK  194  A    between atoms: _490  and  _493
REMARK  195  A    between atoms: _496  and  _498
REMARK  196  A    between atoms: _498  and  _499
REMARK  197  A    between atoms: _498  and  _501
REMARK  198  A    between atoms: _501  and  _502
REMARK  199  A    between atoms: _508  and  _510
REMARK  200  A    between atoms: _510  and  _511
REMARK  201  A    between atoms: _510  and  _513
REMARK  202  A    between atoms: _513  and  _514
REMARK  203  A    between atoms: _516  and  _518
REMARK  204  A    between atoms: _518  and  _519
REMARK  205  A    between atoms: _518  and  _521
REMARK  206  A    between atoms: _521  and  _522
REMARK  207  A    between atoms: _527  and  _529
REMARK  208  A    between atoms: _529  and  _530
REMARK  209  A    between atoms: _529  and  _532
REMARK  210  A    between atoms: _532  and  _533
REMARK  211  A    between atoms: _543  and  _545
REMARK  212  A    between atoms: _545  and  _546
REMARK  213  A    between atoms: _545  and  _548
REMARK  214  A    between atoms: _548  and  _549
REMARK  215  A    between atoms: _552  and  _554
REMARK  216  A    between atoms: _554  and  _555
REMARK  217  A    between atoms: _554  and  _557
REMARK  218  A    between atoms: _557  and  _558
REMARK  219  A    between atoms: _563  and  _564
REMARK  220  A    between atoms: _566  and  _568
REMARK  221  A    between atoms: _568  and  _569
REMARK  222  A    between atoms: _568  and  _571
REMARK  223  A    between atoms: _571  and  _572
REMARK  224  A    between atoms: _575  and  _577
REMARK  225  A    between atoms: _577  and  _578
REMARK  226  A    between atoms: _577  and  _580
REMARK  227  A    between atoms: _580  and  _581
REMARK  228  A    between atoms: _581  and  _582
REMARK  229  A    between atoms: _585  and  _587
REMARK  230  A    between atoms: _587  and  _588
REMARK  231  A    between atoms: _587  and  _590
REMARK  232  A    between atoms: _590  and  _591
REMARK  233  A    between atoms: _596  and  _598
REMARK  234  A    between atoms: _598  and  _599
REMARK  235  A    between atoms: _601  and  _603
REMARK  236  A    between atoms: _603  and  _604
REMARK  237  A    between atoms: _603  and  _606
REMARK  238  A    between atoms: _606  and  _607
REMARK  239  A    between atoms: _607  and  _608
REMARK  240  A    between atoms: _610  and  _612
REMARK  241  A    between atoms: _612  and  _613
REMARK  242  A    between atoms: _612  and  _615
REMARK  243  A    between atoms: _615  and  _616
REMARK  244  A    between atoms: _619  and  _621
REMARK  245  A    between atoms: _621  and  _622
REMARK  246  A    between atoms: _621  and  _624
REMARK  247  A    between atoms: _624  and  _625
REMARK  248  A    between atoms: _635  and  _637
REMARK  249  A    between atoms: _637  and  _638
REMARK  250  A    between atoms: _637  and  _640
REMARK  251  A    between atoms: _640  and  _641
REMARK  252  A    between atoms: _643  and  _645
REMARK  253  A    between atoms: _645  and  _646
REMARK  254  A    between atoms: _645  and  _648
REMARK  255  A    between atoms: _648  and  _649
REMARK  256  A    between atoms: _654  and  _656
REMARK  257  A    between atoms: _656  and  _657
REMARK  258  A    between atoms: _656  and  _659
REMARK  259  A    between atoms: _659  and  _660
REMARK  260  A    between atoms: _666  and  _668
REMARK  261  A    between atoms: _668  and  _669
REMARK  262  A    between atoms: _668  and  _671
REMARK  263  A    between atoms: _671  and  _672
REMARK  264  A    between atoms: _672  and  _673
REMARK  265  A    between atoms: _676  and  _678
REMARK  266  A    between atoms: _678  and  _679
REMARK  267  A    between atoms: _678  and  _681
REMARK  268  A    between atoms: _681  and  _682
REMARK  269  A    between atoms: _692  and  _694
REMARK  270  A    between atoms: _694  and  _695
REMARK  271  A    between atoms: _694  and  _697
REMARK  272  A    between atoms: _697  and  _698
REMARK  273  A    between atoms: _701  and  _703
REMARK  274  A    between atoms: _703  and  _704
REMARK  275  A    between atoms: _703  and  _706
REMARK  276  A    between atoms: _706  and  _707
REMARK  277  A    between atoms: _709  and  _711
REMARK  278  A    between atoms: _711  and  _712
REMARK  279  A    between atoms: _711  and  _714
REMARK  280  A    between atoms: _714  and  _715
REMARK  281  A    between atoms: _717  and  _719
REMARK  282  A    between atoms: _719  and  _720
REMARK  283  A    between atoms: _719  and  _722
REMARK  284  A    between atoms: _722  and  _723
REMARK                            x       y       z     vdW  Elec       q    Type
REMARK                         _______ _______ _______ _____ _____    ______ ____
ROOT
ATOM      1  O   HOH     1      -5.314  -1.161  42.378  0.00  0.00    +0.000 OA
ENDROOT
TORSDOF 0
REMARK  Name = ../refined-set-2016/4qlk/4qlk_pocket.pdb
REMARK  284 active torsions:
REMARK  status: ('A' for Active; 'I' for Inactive)
REMARK    1  A    between atoms: _1  and  _3
REMARK    2  A    between atoms: _3  and  _4
REMARK    3  A    between atoms: _3  and  _6
REMARK    4  A    between atoms: _9  and  _11
REMARK    5  A    between atoms: _11  and  _12
REMARK    6  A    between atoms: _11  and  _14
REMARK    7  A    between atoms: _14  and  _15
REMARK    8  A    between atoms: _18  and  _20
REMARK    9  A    between atoms: _20  and  _21
REMARK   10  A    between atoms: _20  and  _23
REMARK   11  A    between atoms: _23  and  _24
REMARK   12  A    between atoms: _26  and  _28
REMARK   13  A    between atoms: _28  and  _29
REMARK   14  A    between atoms: _28  and  _31
REMARK   15  A    between atoms: _31  and  _32
REMARK   16  A    between atoms: _32  and  _33
REMARK   17  A    between atoms: _38  and  _40
REMARK   18  A    between atoms: _40  and  _41
REMARK   19  A    between atoms: _40  and  _43
REMARK   20  A    between atoms: _43  and  _44
REMARK   21  A    between atoms: _44  and  _45
REMARK   22  A    between atoms: _45  and  _46
REMARK   23  A    between atoms: _55  and  _57
REMARK   24  A    between atoms: _57  and  _58
REMARK   25  A    between atoms: _57  and  _60
REMARK   26  A    between atoms: _60  and  _61
REMARK   27  A    between atoms: _66  and  _68
REMARK   28  A    between atoms: _68  and  _69
REMARK   29  A    between atoms: _68  and  _71
REMARK   30  A    between atoms: _71  and  _72
REMARK   31  A    between atoms: _77  and  _78
REMARK   32  A    between atoms: _80  and  _82
REMARK   33  A    between atoms: _82  and  _83
REMARK   34  A    between atoms: _82  and  _85
REMARK   35  A    between atoms: _85  and  _86
REMARK   36  A    between atoms: _91  and  _93
REMARK   37  A    between atoms: _93  and  _94
REMARK   38  A    between atoms: _93  and  _96
REMARK   39  A    between atoms: _96  and  _97
REMARK   40  A    between atoms: _97  and  _98
REMARK   41  A    between atoms: _103  and  _105
REMARK   42  A    between atoms: _105  and  _106
REMARK   43  A    between atoms: _105  and  _108
REMARK   44  A    between atoms: _108  and  _109
REMARK   45  A    between atoms: _109  and  _110
REMARK   46  A    between atoms: _110  and  _111
REMARK   47  A    between atoms: _120  and  _122
REMARK   48  A    between atoms: _122  and  _123
REMARK   49  A    between atoms: _122  and  _125
REMARK   50  A    between atoms: _125  and  _126
REMARK   51  A    between atoms: _129  and  _131
REMARK   52  A    between atoms: _131  and  _132
REMARK   53  A    between atoms: _131  and  _134
REMARK   54  A    between atoms: _134  and  _135
REMARK   55  A    between atoms: _138  and  _140
REMARK   56  A    between atoms: _140  and  _141
REMARK   57  A    between atoms: _140  and  _143
REMARK   58  A    between atoms: _143  and  _144
REMARK   59  A    between atoms: _147  and  _149
REMARK   60  A    between atoms: _149  and  _150
REMARK   61  A    between atoms: _149  and  _152
REMARK   62  A    between atoms: _152  and  _153
REMARK   63  A    between atoms: _156  and  _158
REMARK   64  A    between atoms: _158  and  _159
REMARK   65  A    between atoms: _158  and  _161
REMARK   66  A    between atoms: _161  and  _162
REMARK   67  A    between atoms: _162  and  _163
REMARK   68  A    between atoms: _168  and  _170
REMARK   69  A    between atoms: _170  and  _171
REMARK   70  A    between atoms: _170  and  _173
REMARK   71  A    between atoms: _173  and  _174
REMARK   72  A    between atoms: _177  and  _179
REMARK   73  A    between atoms: _179  and  _180
REMARK   74  A    between atoms: _179  and  _182
REMARK   75  A    between atoms: _182  and  _183
REMARK   76  A    between atoms: _188  and  _190
REMARK   77  A    between atoms: _190  and  _191
REMARK   78  A    between atoms: _190  and  _193
REMARK   79  A    between atoms: _196  and  _198
REMARK   80  A    between atoms: _198  and  _199
REMARK   81  A    between atoms: _198  and  _201
REMARK   82  A    between atoms: _201  and  _202
REMARK   83  A    between atoms: _205  and  _207
REMARK   84  A    between atoms: _207  and  _208
REMARK   85  A    between atoms: _207  and  _210
REMARK   86  A    between atoms: _210  and  _211
REMARK   87  A    between atoms: _214  and  _216
REMARK   88  A    between atoms: _216  and  _217
REMARK   89  A    between atoms: _216  and  _219
REMARK   90  A    between atoms: _219  and  _220
REMARK   91  A    between atoms: _226  and  _228
REMARK   92  A    between atoms: _228  and  _229
REMARK   93  A    between atoms: _228  and  _231
REMARK   94  A    between atoms: _231  and  _232
REMARK   95  A    between atoms: _237  and  _239
REMARK   96  A    between atoms: _239  and  _240
REMARK   97  A    between atoms: _239  and  _242
REMARK   98  A    between atoms: _242  and  _243
REMARK   99  A    between atoms: _253  and  _255
REMARK  100  A    between atoms: _255  and  _256
REMARK  101  A    between atoms: _255  and  _258
REMARK  102  A    between atoms: _258  and  _259
REMARK  103  A    between atoms: _264  and  _265
REMARK  104  A    between atoms: _267  and  _269
REMARK  105  A    between atoms: _269  and  _270
REMARK  106  A    between atoms: _273  and  _275
REMARK  107  A    between atoms: _275  and  _276
REMARK  108  A    between atoms: _275  and  _278
REMARK  109  A    between atoms: _278  and  _279
REMARK  110  A    between atoms: _285  and  _287
REMARK  111  A    between atoms: _287  and  _288
REMARK  112  A    between atoms: _287  and  _290
REMARK  113  A    between atoms: _290  and  _291
REMARK  114  A    between atoms: _296  and  _298
REMARK  115  A    between atoms: _298  and  _299
REMARK  116  A    between atoms: _298  and  _301
REMARK  117  A    between atoms: _301  and  _302
REMARK  118  A    between atoms: _307  and  _309
REMARK  119  A    between atoms: _309  and  _310
REMARK  120  A    between atoms: _309  and  _312
REMARK  121  A    between atoms: _312  and  _313
REMARK  122  A    between atoms: _313  and  _314
REMARK  123  A    between atoms: _319  and  _321
REMARK  124  A    between atoms: _321  and  _322
REMARK  125  A    between atoms: _321  and  _324
REMARK  126  A    between atoms: _324  and  _325
REMARK  127  A    between atoms: _330  and  _331
REMARK  128  A    between atoms: _333  and  _335
REMARK  129  A    between atoms: _335  and  _336
REMARK  130  A    between atoms: _335  and  _338
REMARK  131  A    between atoms: _338  and  _339
REMARK  132  A    between atoms: _342  and  _344
REMARK  133  A    between atoms: _344  and  _345
REMARK  134  A    between atoms: _348  and  _350
REMARK  135  A    between atoms: _350  and  _351
REMARK  136  A    between atoms: _350  and  _353
REMARK  137  A    between atoms: _353  and  _354
REMARK  138  A    between atoms: _356  and  _358
REMARK  139  A    between atoms: _358  and  _359
REMARK  140  A    between atoms: _358  and  _361
REMARK  141  A    between atoms: _361  and  _362
REMARK  142  A    between atoms: _367  and  _368
REMARK  143  A    between atoms: _370  and  _372
REMARK  144  A    between atoms: _372  and  _373
REMARK  145  A    between atoms: _372  and  _375
REMARK  146  A    between atoms: _375  and  _376
REMARK  147  A    between atoms: _376  and  _377
REMARK  148  A    between atoms: _379  and  _381
REMARK  149  A    between atoms: _381  and  _382
REMARK  150  A    between atoms: _381  and  _384
REMARK  151  A    between atoms: _384  and  _385
REMARK  152  A    between atoms: _385  and  _386
REMARK  153  A    between atoms: _386  and  _387
REMARK  154  A    between atoms: _387  and  _388
REMARK  155  A    between atoms: _392  and  _394
REMARK  156  A    between atoms: _394  and  _395
REMARK  157  A    between atoms: _394  and  _397
REMARK  158  A    between atoms: _397  and  _398
REMARK  159  A    between atoms: _400  and  _402
REMARK  160  A    between atoms: _402  and  _403
REMARK  161  A    between atoms: _402  and  _405
REMARK  162  A    between atoms: _405  and  _406
REMARK  163  A    between atoms: _411  and  _412
REMARK  164  A    between atoms: _414  and  _416
REMARK  165  A    between atoms: _416  and  _417
REMARK  166  A    between atoms: _416  and  _419
REMARK  167  A    between atoms: _419  and  _420
REMARK  168  A    between atoms: _422  and  _424
REMARK  169  A    between atoms: _424  and  _425
REMARK  170  A    between atoms: _428  and  _430
REMARK  171  A    between atoms: _430  and  _431
REMARK  172  A    between atoms: _430  and  _433
REMARK  173  A    between atoms: _433  and  _434
REMARK  174  A    between atoms: _437  and  _439
REMARK  175  A    between atoms: _439  and  _440
REMARK  176  A    between atoms: _439  and  _442
REMARK  177  A    between atoms: _442  and  _443
REMARK  178  A    between atoms: _453  and  _455
REMARK  179  A    between atoms: _455  and  _456
REMARK  180  A    between atoms: _455  and  _458
REMARK  181  A    between atoms: _458  and  _459
REMARK  182  A    between atoms: _459  and  _460
REMARK  183  A    between atoms: _465  and  _467
REMARK  184  A    between atoms: _467  and  _468
REMARK  185  A    between atoms: _467  and  _470
REMARK  186  A    between atoms: _473  and  _475
REMARK  187  A    between atoms: _475  and  _476
REMARK  188  A    between atoms: _475  and  _478
REMARK  189  A    between atoms: _478  and  _479
REMARK  190  A    between atoms: _482  and  _484
REMARK  191  A    between atoms: _484  and  _485
REMARK  192  A    between atoms: _488  and  _490
REMARK  193  A    between atoms: _490  and  _491
REMARK  194  A    between atoms: _490  and  _493
REMARK  195  A    between atoms: _496  and  _498
REMARK  196  A    between atoms: _498  and  _499
REMARK  197  A    between atoms: _498  and  _501
REMARK  198  A    between atoms: _501  and  _502
REMARK  199  A    between atoms: _508  and  _510
REMARK  200  A    between atoms: _510  and  _511
REMARK  201  A    between atoms: _510  and  _513
REMARK  202  A    between atoms: _513  and  _514
REMARK  203  A    between atoms: _516  and  _518
REMARK  204  A    between atoms: _518  and  _519
REMARK  205  A    between atoms: _518  and  _521
REMARK  206  A    between atoms: _521  and  _522
REMARK  207  A    between atoms: _527  and  _529
REMARK  208  A    between atoms: _529  and  _530
REMARK  209  A    between atoms: _529  and  _532
REMARK  210  A    between atoms: _532  and  _533
REMARK  211  A    between atoms: _543  and  _545
REMARK  212  A    between atoms: _545  and  _546
REMARK  213  A    between atoms: _545  and  _548
REMARK  214  A    between atoms: _548  and  _549
REMARK  215  A    between atoms: _552  and  _554
REMARK  216  A    between atoms: _554  and  _555
REMARK  217  A    between atoms: _554  and  _557
REMARK  218  A    between atoms: _557  and  _558
REMARK  219  A    between atoms: _563  and  _564
REMARK  220  A    between atoms: _566  and  _568
REMARK  221  A    between atoms: _568  and  _569
REMARK  222  A    between atoms: _568  and  _571
REMARK  223  A    between atoms: _571  and  _572
REMARK  224  A    between atoms: _575  and  _577
REMARK  225  A    between atoms: _577  and  _578
REMARK  226  A    between atoms: _577  and  _580
REMARK  227  A    between atoms: _580  and  _581
REMARK  228  A    between atoms: _581  and  _582
REMARK  229  A    between atoms: _585  and  _587
REMARK  230  A    between atoms: _587  and  _588
REMARK  231  A    between atoms: _587  and  _590
REMARK  232  A    between atoms: _590  and  _591
REMARK  233  A    between atoms: _596  and  _598
REMARK  234  A    between atoms: _598  and  _599
REMARK  235  A    between atoms: _601  and  _603
REMARK  236  A    between atoms: _603  and  _604
REMARK  237  A    between atoms: _603  and  _606
REMARK  238  A    between atoms: _606  and  _607
REMARK  239  A    between atoms: _607  and  _608
REMARK  240  A    between atoms: _610  and  _612
REMARK  241  A    between atoms: _612  and  _613
REMARK  242  A    between atoms: _612  and  _615
REMARK  243  A    between atoms: _615  and  _616
REMARK  244  A    between atoms: _619  and  _621
REMARK  245  A    between atoms: _621  and  _622
REMARK  246  A    between atoms: _621  and  _624
REMARK  247  A    between atoms: _624  and  _625
REMARK  248  A    between atoms: _635  and  _637
REMARK  249  A    between atoms: _637  and  _638
REMARK  250  A    between atoms: _637  and  _640
REMARK  251  A    between atoms: _640  and  _641
REMARK  252  A    between atoms: _643  and  _645
REMARK  253  A    between atoms: _645  and  _646
REMARK  254  A    between atoms: _645  and  _648
REMARK  255  A    between atoms: _648  and  _649
REMARK  256  A    between atoms: _654  and  _656
REMARK  257  A    between atoms: _656  and  _657
REMARK  258  A    between atoms: _656  and  _659
REMARK  259  A    between atoms: _659  and  _660
REMARK  260  A    between atoms: _666  and  _668
REMARK  261  A    between atoms: _668  and  _669
REMARK  262  A    between atoms: _668  and  _671
REMARK  263  A    between atoms: _671  and  _672
REMARK  264  A    between atoms: _672  and  _673
REMARK  265  A    between atoms: _676  and  _678
REMARK  266  A    between atoms: _678  and  _679
REMARK  267  A    between atoms: _678  and  _681
REMARK  268  A    between atoms: _681  and  _682
REMARK  269  A    between atoms: _692  and  _694
REMARK  270  A    between atoms: _694  and  _695
REMARK  271  A    between atoms: _694  and  _697
REMARK  272  A    between atoms: _697  and  _698
REMARK  273  A    between atoms: _701  and  _703
REMARK  274  A    between atoms: _703  and  _704
REMARK  275  A    between atoms: _703  and  _706
REMARK  276  A    between atoms: _706  and  _707
REMARK  277  A    between atoms: _709  and  _711
REMARK  278  A    between atoms: _711  and  _712
REMARK  279  A    between atoms: _711  and  _714
REMARK  280  A    between atoms: _714  and  _715
REMARK  281  A    between atoms: _717  and  _719
REMARK  282  A    between atoms: _719  and  _720
REMARK  283  A    between atoms: _719  and  _722
REMARK  284  A    between atoms: _722  and  _723
REMARK                            x       y       z     vdW  Elec       q    Type
REMARK                         _______ _______ _______ _____ _____    ______ ____
ROOT
ATOM      1  O   HOH     1     -14.285   0.425  51.677  0.00  0.00    +0.000 OA
ENDROOT
TORSDOF 0
REMARK  Name = ../refined-set-2016/4qlk/4qlk_pocket.pdb
REMARK  284 active torsions:
REMARK  status: ('A' for Active; 'I' for Inactive)
REMARK    1  A    between atoms: _1  and  _3
REMARK    2  A    between atoms: _3  and  _4
REMARK    3  A    between atoms: _3  and  _6
REMARK    4  A    between atoms: _9  and  _11
REMARK    5  A    between atoms: _11  and  _12
REMARK    6  A    between atoms: _11  and  _14
REMARK    7  A    between atoms: _14  and  _15
REMARK    8  A    between atoms: _18  and  _20
REMARK    9  A    between atoms: _20  and  _21
REMARK   10  A    between atoms: _20  and  _23
REMARK   11  A    between atoms: _23  and  _24
REMARK   12  A    between atoms: _26  and  _28
REMARK   13  A    between atoms: _28  and  _29
REMARK   14  A    between atoms: _28  and  _31
REMARK   15  A    between atoms: _31  and  _32
REMARK   16  A    between atoms: _32  and  _33
REMARK   17  A    between atoms: _38  and  _40
REMARK   18  A    between atoms: _40  and  _41
REMARK   19  A    between atoms: _40  and  _43
REMARK   20  A    between atoms: _43  and  _44
REMARK   21  A    between atoms: _44  and  _45
REMARK   22  A    between atoms: _45  and  _46
REMARK   23  A    between atoms: _55  and  _57
REMARK   24  A    between atoms: _57  and  _58
REMARK   25  A    between atoms: _57  and  _60
REMARK   26  A    between atoms: _60  and  _61
REMARK   27  A    between atoms: _66  and  _68
REMARK   28  A    between atoms: _68  and  _69
REMARK   29  A    between atoms: _68  and  _71
REMARK   30  A    between atoms: _71  and  _72
REMARK   31  A    between atoms: _77  and  _78
REMARK   32  A    between atoms: _80  and  _82
REMARK   33  A    between atoms: _82  and  _83
REMARK   34  A    between atoms: _82  and  _85
REMARK   35  A    between atoms: _85  and  _86
REMARK   36  A    between atoms: _91  and  _93
REMARK   37  A    between atoms: _93  and  _94
REMARK   38  A    between atoms: _93  and  _96
REMARK   39  A    between atoms: _96  and  _97
REMARK   40  A    between atoms: _97  and  _98
REMARK   41  A    between atoms: _103  and  _105
REMARK   42  A    between atoms: _105  and  _106
REMARK   43  A    between atoms: _105  and  _108
REMARK   44  A    between atoms: _108  and  _109
REMARK   45  A    between atoms: _109  and  _110
REMARK   46  A    between atoms: _110  and  _111
REMARK   47  A    between atoms: _120  and  _122
REMARK   48  A    between atoms: _122  and  _123
REMARK   49  A    between atoms: _122  and  _125
REMARK   50  A    between atoms: _125  and  _126
REMARK   51  A    between atoms: _129  and  _131
REMARK   52  A    between atoms: _131  and  _132
REMARK   53  A    between atoms: _131  and  _134
REMARK   54  A    between atoms: _134  and  _135
REMARK   55  A    between atoms: _138  and  _140
REMARK   56  A    between atoms: _140  and  _141
REMARK   57  A    between atoms: _140  and  _143
REMARK   58  A    between atoms: _143  and  _144
REMARK   59  A    between atoms: _147  and  _149
REMARK   60  A    between atoms: _149  and  _150
REMARK   61  A    between atoms: _149  and  _152
REMARK   62  A    between atoms: _152  and  _153
REMARK   63  A    between atoms: _156  and  _158
REMARK   64  A    between atoms: _158  and  _159
REMARK   65  A    between atoms: _158  and  _161
REMARK   66  A    between atoms: _161  and  _162
REMARK   67  A    between atoms: _162  and  _163
REMARK   68  A    between atoms: _168  and  _170
REMARK   69  A    between atoms: _170  and  _171
REMARK   70  A    between atoms: _170  and  _173
REMARK   71  A    between atoms: _173  and  _174
REMARK   72  A    between atoms: _177  and  _179
REMARK   73  A    between atoms: _179  and  _180
REMARK   74  A    between atoms: _179  and  _182
REMARK   75  A    between atoms: _182  and  _183
REMARK   76  A    between atoms: _188  and  _190
REMARK   77  A    between atoms: _190  and  _191
REMARK   78  A    between atoms: _190  and  _193
REMARK   79  A    between atoms: _196  and  _198
REMARK   80  A    between atoms: _198  and  _199
REMARK   81  A    between atoms: _198  and  _201
REMARK   82  A    between atoms: _201  and  _202
REMARK   83  A    between atoms: _205  and  _207
REMARK   84  A    between atoms: _207  and  _208
REMARK   85  A    between atoms: _207  and  _210
REMARK   86  A    between atoms: _210  and  _211
REMARK   87  A    between atoms: _214  and  _216
REMARK   88  A    between atoms: _216  and  _217
REMARK   89  A    between atoms: _216  and  _219
REMARK   90  A    between atoms: _219  and  _220
REMARK   91  A    between atoms: _226  and  _228
REMARK   92  A    between atoms: _228  and  _229
REMARK   93  A    between atoms: _228  and  _231
REMARK   94  A    between atoms: _231  and  _232
REMARK   95  A    between atoms: _237  and  _239
REMARK   96  A    between atoms: _239  and  _240
REMARK   97  A    between atoms: _239  and  _242
REMARK   98  A    between atoms: _242  and  _243
REMARK   99  A    between atoms: _253  and  _255
REMARK  100  A    between atoms: _255  and  _256
REMARK  101  A    between atoms: _255  and  _258
REMARK  102  A    between atoms: _258  and  _259
REMARK  103  A    between atoms: _264  and  _265
REMARK  104  A    between atoms: _267  and  _269
REMARK  105  A    between atoms: _269  and  _270
REMARK  106  A    between atoms: _273  and  _275
REMARK  107  A    between atoms: _275  and  _276
REMARK  108  A    between atoms: _275  and  _278
REMARK  109  A    between atoms: _278  and  _279
REMARK  110  A    between atoms: _285  and  _287
REMARK  111  A    between atoms: _287  and  _288
REMARK  112  A    between atoms: _287  and  _290
REMARK  113  A    between atoms: _290  and  _291
REMARK  114  A    between atoms: _296  and  _298
REMARK  115  A    between atoms: _298  and  _299
REMARK  116  A    between atoms: _298  and  _301
REMARK  117  A    between atoms: _301  and  _302
REMARK  118  A    between atoms: _307  and  _309
REMARK  119  A    between atoms: _309  and  _310
REMARK  120  A    between atoms: _309  and  _312
REMARK  121  A    between atoms: _312  and  _313
REMARK  122  A    between atoms: _313  and  _314
REMARK  123  A    between atoms: _319  and  _321
REMARK  124  A    between atoms: _321  and  _322
REMARK  125  A    between atoms: _321  and  _324
REMARK  126  A    between atoms: _324  and  _325
REMARK  127  A    between atoms: _330  and  _331
REMARK  128  A    between atoms: _333  and  _335
REMARK  129  A    between atoms: _335  and  _336
REMARK  130  A    between atoms: _335  and  _338
REMARK  131  A    between atoms: _338  and  _339
REMARK  132  A    between atoms: _342  and  _344
REMARK  133  A    between atoms: _344  and  _345
REMARK  134  A    between atoms: _348  and  _350
REMARK  135  A    between atoms: _350  and  _351
REMARK  136  A    between atoms: _350  and  _353
REMARK  137  A    between atoms: _353  and  _354
REMARK  138  A    between atoms: _356  and  _358
REMARK  139  A    between atoms: _358  and  _359
REMARK  140  A    between atoms: _358  and  _361
REMARK  141  A    between atoms: _361  and  _362
REMARK  142  A    between atoms: _367  and  _368
REMARK  143  A    between atoms: _370  and  _372
REMARK  144  A    between atoms: _372  and  _373
REMARK  145  A    between atoms: _372  and  _375
REMARK  146  A    between atoms: _375  and  _376
REMARK  147  A    between atoms: _376  and  _377
REMARK  148  A    between atoms: _379  and  _381
REMARK  149  A    between atoms: _381  and  _382
REMARK  150  A    between atoms: _381  and  _384
REMARK  151  A    between atoms: _384  and  _385
REMARK  152  A    between atoms: _385  and  _386
REMARK  153  A    between atoms: _386  and  _387
REMARK  154  A    between atoms: _387  and  _388
REMARK  155  A    between atoms: _392  and  _394
REMARK  156  A    between atoms: _394  and  _395
REMARK  157  A    between atoms: _394  and  _397
REMARK  158  A    between atoms: _397  and  _398
REMARK  159  A    between atoms: _400  and  _402
REMARK  160  A    between atoms: _402  and  _403
REMARK  161  A    between atoms: _402  and  _405
REMARK  162  A    between atoms: _405  and  _406
REMARK  163  A    between atoms: _411  and  _412
REMARK  164  A    between atoms: _414  and  _416
REMARK  165  A    between atoms: _416  and  _417
REMARK  166  A    between atoms: _416  and  _419
REMARK  167  A    between atoms: _419  and  _420
REMARK  168  A    between atoms: _422  and  _424
REMARK  169  A    between atoms: _424  and  _425
REMARK  170  A    between atoms: _428  and  _430
REMARK  171  A    between atoms: _430  and  _431
REMARK  172  A    between atoms: _430  and  _433
REMARK  173  A    between atoms: _433  and  _434
REMARK  174  A    between atoms: _437  and  _439
REMARK  175  A    between atoms: _439  and  _440
REMARK  176  A    between atoms: _439  and  _442
REMARK  177  A    between atoms: _442  and  _443
REMARK  178  A    between atoms: _453  and  _455
REMARK  179  A    between atoms: _455  and  _456
REMARK  180  A    between atoms: _455  and  _458
REMARK  181  A    between atoms: _458  and  _459
REMARK  182  A    between atoms: _459  and  _460
REMARK  183  A    between atoms: _465  and  _467
REMARK  184  A    between atoms: _467  and  _468
REMARK  185  A    between atoms: _467  and  _470
REMARK  186  A    between atoms: _473  and  _475
REMARK  187  A    between atoms: _475  and  _476
REMARK  188  A    between atoms: _475  and  _478
REMARK  189  A    between atoms: _478  and  _479
REMARK  190  A    between atoms: _482  and  _484
REMARK  191  A    between atoms: _484  and  _485
REMARK  192  A    between atoms: _488  and  _490
REMARK  193  A    between atoms: _490  and  _491
REMARK  194  A    between atoms: _490  and  _493
REMARK  195  A    between atoms: _496  and  _498
REMARK  196  A    between atoms: _498  and  _499
REMARK  197  A    between atoms: _498  and  _501
REMARK  198  A    between atoms: _501  and  _502
REMARK  199  A    between atoms: _508  and  _510
REMARK  200  A    between atoms: _510  and  _511
REMARK  201  A    between atoms: _510  and  _513
REMARK  202  A    between atoms: _513  and  _514
REMARK  203  A    between atoms: _516  and  _518
REMARK  204  A    between atoms: _518  and  _519
REMARK  205  A    between atoms: _518  and  _521
REMARK  206  A    between atoms: _521  and  _522
REMARK  207  A    between atoms: _527  and  _529
REMARK  208  A    between atoms: _529  and  _530
REMARK  209  A    between atoms: _529  and  _532
REMARK  210  A    between atoms: _532  and  _533
REMARK  211  A    between atoms: _543  and  _545
REMARK  212  A    between atoms: _545  and  _546
REMARK  213  A    between atoms: _545  and  _548
REMARK  214  A    between atoms: _548  and  _549
REMARK  215  A    between atoms: _552  and  _554
REMARK  216  A    between atoms: _554  and  _555
REMARK  217  A    between atoms: _554  and  _557
REMARK  218  A    between atoms: _557  and  _558
REMARK  219  A    between atoms: _563  and  _564
REMARK  220  A    between atoms: _566  and  _568
REMARK  221  A    between atoms: _568  and  _569
REMARK  222  A    between atoms: _568  and  _571
REMARK  223  A    between atoms: _571  and  _572
REMARK  224  A    between atoms: _575  and  _577
REMARK  225  A    between atoms: _577  and  _578
REMARK  226  A    between atoms: _577  and  _580
REMARK  227  A    between atoms: _580  and  _581
REMARK  228  A    between atoms: _581  and  _582
REMARK  229  A    between atoms: _585  and  _587
REMARK  230  A    between atoms: _587  and  _588
REMARK  231  A    between atoms: _587  and  _590
REMARK  232  A    between atoms: _590  and  _591
REMARK  233  A    between atoms: _596  and  _598
REMARK  234  A    between atoms: _598  and  _599
REMARK  235  A    between atoms: _601  and  _603
REMARK  236  A    between atoms: _603  and  _604
REMARK  237  A    between atoms: _603  and  _606
REMARK  238  A    between atoms: _606  and  _607
REMARK  239  A    between atoms: _607  and  _608
REMARK  240  A    between atoms: _610  and  _612
REMARK  241  A    between atoms: _612  and  _613
REMARK  242  A    between atoms: _612  and  _615
REMARK  243  A    between atoms: _615  and  _616
REMARK  244  A    between atoms: _619  and  _621
REMARK  245  A    between atoms: _621  and  _622
REMARK  246  A    between atoms: _621  and  _624
REMARK  247  A    between atoms: _624  and  _625
REMARK  248  A    between atoms: _635  and  _637
REMARK  249  A    between atoms: _637  and  _638
REMARK  250  A    between atoms: _637  and  _640
REMARK  251  A    between atoms: _640  and  _641
REMARK  252  A    between atoms: _643  and  _645
REMARK  253  A    between atoms: _645  and  _646
REMARK  254  A    between atoms: _645  and  _648
REMARK  255  A    between atoms: _648  and  _649
REMARK  256  A    between atoms: _654  and  _656
REMARK  257  A    between atoms: _656  and  _657
REMARK  258  A    between atoms: _656  and  _659
REMARK  259  A    between atoms: _659  and  _660
REMARK  260  A    between atoms: _666  and  _668
REMARK  261  A    between atoms: _668  and  _669
REMARK  262  A    between atoms: _668  and  _671
REMARK  263  A    between atoms: _671  and  _672
REMARK  264  A    between atoms: _672  and  _673
REMARK  265  A    between atoms: _676  and  _678
REMARK  266  A    between atoms: _678  and  _679
REMARK  267  A    between atoms: _678  and  _681
REMARK  268  A    between atoms: _681  and  _682
REMARK  269  A    between atoms: _692  and  _694
REMARK  270  A    between atoms: _694  and  _695
REMARK  271  A    between atoms: _694  and  _697
REMARK  272  A    between atoms: _697  and  _698
REMARK  273  A    between atoms: _701  and  _703
REMARK  274  A    between atoms: _703  and  _704
REMARK  275  A    between atoms: _703  and  _706
REMARK  276  A    between atoms: _706  and  _707
REMARK  277  A    between atoms: _709  and  _711
REMARK  278  A    between atoms: _711  and  _712
REMARK  279  A    between atoms: _711  and  _714
REMARK  280  A    between atoms: _714  and  _715
REMARK  281  A    between atoms: _717  and  _719
REMARK  282  A    between atoms: _719  and  _720
REMARK  283  A    between atoms: _719  and  _722
REMARK  284  A    between atoms: _722  and  _723
REMARK                            x       y       z     vdW  Elec       q    Type
REMARK                         _______ _______ _______ _____ _____    ______ ____
ROOT
ATOM      1  O   HOH     1      -8.467  -3.302  40.637  0.00  0.00    +0.000 OA
ENDROOT
TORSDOF 0
REMARK  Name = ../refined-set-2016/4qlk/4qlk_pocket.pdb
REMARK  284 active torsions:
REMARK  status: ('A' for Active; 'I' for Inactive)
REMARK    1  A    between atoms: _1  and  _3
REMARK    2  A    between atoms: _3  and  _4
REMARK    3  A    between atoms: _3  and  _6
REMARK    4  A    between atoms: _9  and  _11
REMARK    5  A    between atoms: _11  and  _12
REMARK    6  A    between atoms: _11  and  _14
REMARK    7  A    between atoms: _14  and  _15
REMARK    8  A    between atoms: _18  and  _20
REMARK    9  A    between atoms: _20  and  _21
REMARK   10  A    between atoms: _20  and  _23
REMARK   11  A    between atoms: _23  and  _24
REMARK   12  A    between atoms: _26  and  _28
REMARK   13  A    between atoms: _28  and  _29
REMARK   14  A    between atoms: _28  and  _31
REMARK   15  A    between atoms: _31  and  _32
REMARK   16  A    between atoms: _32  and  _33
REMARK   17  A    between atoms: _38  and  _40
REMARK   18  A    between atoms: _40  and  _41
REMARK   19  A    between atoms: _40  and  _43
REMARK   20  A    between atoms: _43  and  _44
REMARK   21  A    between atoms: _44  and  _45
REMARK   22  A    between atoms: _45  and  _46
REMARK   23  A    between atoms: _55  and  _57
REMARK   24  A    between atoms: _57  and  _58
REMARK   25  A    between atoms: _57  and  _60
REMARK   26  A    between atoms: _60  and  _61
REMARK   27  A    between atoms: _66  and  _68
REMARK   28  A    between atoms: _68  and  _69
REMARK   29  A    between atoms: _68  and  _71
REMARK   30  A    between atoms: _71  and  _72
REMARK   31  A    between atoms: _77  and  _78
REMARK   32  A    between atoms: _80  and  _82
REMARK   33  A    between atoms: _82  and  _83
REMARK   34  A    between atoms: _82  and  _85
REMARK   35  A    between atoms: _85  and  _86
REMARK   36  A    between atoms: _91  and  _93
REMARK   37  A    between atoms: _93  and  _94
REMARK   38  A    between atoms: _93  and  _96
REMARK   39  A    between atoms: _96  and  _97
REMARK   40  A    between atoms: _97  and  _98
REMARK   41  A    between atoms: _103  and  _105
REMARK   42  A    between atoms: _105  and  _106
REMARK   43  A    between atoms: _105  and  _108
REMARK   44  A    between atoms: _108  and  _109
REMARK   45  A    between atoms: _109  and  _110
REMARK   46  A    between atoms: _110  and  _111
REMARK   47  A    between atoms: _120  and  _122
REMARK   48  A    between atoms: _122  and  _123
REMARK   49  A    between atoms: _122  and  _125
REMARK   50  A    between atoms: _125  and  _126
REMARK   51  A    between atoms: _129  and  _131
REMARK   52  A    between atoms: _131  and  _132
REMARK   53  A    between atoms: _131  and  _134
REMARK   54  A    between atoms: _134  and  _135
REMARK   55  A    between atoms: _138  and  _140
REMARK   56  A    between atoms: _140  and  _141
REMARK   57  A    between atoms: _140  and  _143
REMARK   58  A    between atoms: _143  and  _144
REMARK   59  A    between atoms: _147  and  _149
REMARK   60  A    between atoms: _149  and  _150
REMARK   61  A    between atoms: _149  and  _152
REMARK   62  A    between atoms: _152  and  _153
REMARK   63  A    between atoms: _156  and  _158
REMARK   64  A    between atoms: _158  and  _159
REMARK   65  A    between atoms: _158  and  _161
REMARK   66  A    between atoms: _161  and  _162
REMARK   67  A    between atoms: _162  and  _163
REMARK   68  A    between atoms: _168  and  _170
REMARK   69  A    between atoms: _170  and  _171
REMARK   70  A    between atoms: _170  and  _173
REMARK   71  A    between atoms: _173  and  _174
REMARK   72  A    between atoms: _177  and  _179
REMARK   73  A    between atoms: _179  and  _180
REMARK   74  A    between atoms: _179  and  _182
REMARK   75  A    between atoms: _182  and  _183
REMARK   76  A    between atoms: _188  and  _190
REMARK   77  A    between atoms: _190  and  _191
REMARK   78  A    between atoms: _190  and  _193
REMARK   79  A    between atoms: _196  and  _198
REMARK   80  A    between atoms: _198  and  _199
REMARK   81  A    between atoms: _198  and  _201
REMARK   82  A    between atoms: _201  and  _202
REMARK   83  A    between atoms: _205  and  _207
REMARK   84  A    between atoms: _207  and  _208
REMARK   85  A    between atoms: _207  and  _210
REMARK   86  A    between atoms: _210  and  _211
REMARK   87  A    between atoms: _214  and  _216
REMARK   88  A    between atoms: _216  and  _217
REMARK   89  A    between atoms: _216  and  _219
REMARK   90  A    between atoms: _219  and  _220
REMARK   91  A    between atoms: _226  and  _228
REMARK   92  A    between atoms: _228  and  _229
REMARK   93  A    between atoms: _228  and  _231
REMARK   94  A    between atoms: _231  and  _232
REMARK   95  A    between atoms: _237  and  _239
REMARK   96  A    between atoms: _239  and  _240
REMARK   97  A    between atoms: _239  and  _242
REMARK   98  A    between atoms: _242  and  _243
REMARK   99  A    between atoms: _253  and  _255
REMARK  100  A    between atoms: _255  and  _256
REMARK  101  A    between atoms: _255  and  _258
REMARK  102  A    between atoms: _258  and  _259
REMARK  103  A    between atoms: _264  and  _265
REMARK  104  A    between atoms: _267  and  _269
REMARK  105  A    between atoms: _269  and  _270
REMARK  106  A    between atoms: _273  and  _275
REMARK  107  A    between atoms: _275  and  _276
REMARK  108  A    between atoms: _275  and  _278
REMARK  109  A    between atoms: _278  and  _279
REMARK  110  A    between atoms: _285  and  _287
REMARK  111  A    between atoms: _287  and  _288
REMARK  112  A    between atoms: _287  and  _290
REMARK  113  A    between atoms: _290  and  _291
REMARK  114  A    between atoms: _296  and  _298
REMARK  115  A    between atoms: _298  and  _299
REMARK  116  A    between atoms: _298  and  _301
REMARK  117  A    between atoms: _301  and  _302
REMARK  118  A    between atoms: _307  and  _309
REMARK  119  A    between atoms: _309  and  _310
REMARK  120  A    between atoms: _309  and  _312
REMARK  121  A    between atoms: _312  and  _313
REMARK  122  A    between atoms: _313  and  _314
REMARK  123  A    between atoms: _319  and  _321
REMARK  124  A    between atoms: _321  and  _322
REMARK  125  A    between atoms: _321  and  _324
REMARK  126  A    between atoms: _324  and  _325
REMARK  127  A    between atoms: _330  and  _331
REMARK  128  A    between atoms: _333  and  _335
REMARK  129  A    between atoms: _335  and  _336
REMARK  130  A    between atoms: _335  and  _338
REMARK  131  A    between atoms: _338  and  _339
REMARK  132  A    between atoms: _342  and  _344
REMARK  133  A    between atoms: _344  and  _345
REMARK  134  A    between atoms: _348  and  _350
REMARK  135  A    between atoms: _350  and  _351
REMARK  136  A    between atoms: _350  and  _353
REMARK  137  A    between atoms: _353  and  _354
REMARK  138  A    between atoms: _356  and  _358
REMARK  139  A    between atoms: _358  and  _359
REMARK  140  A    between atoms: _358  and  _361
REMARK  141  A    between atoms: _361  and  _362
REMARK  142  A    between atoms: _367  and  _368
REMARK  143  A    between atoms: _370  and  _372
REMARK  144  A    between atoms: _372  and  _373
REMARK  145  A    between atoms: _372  and  _375
REMARK  146  A    between atoms: _375  and  _376
REMARK  147  A    between atoms: _376  and  _377
REMARK  148  A    between atoms: _379  and  _381
REMARK  149  A    between atoms: _381  and  _382
REMARK  150  A    between atoms: _381  and  _384
REMARK  151  A    between atoms: _384  and  _385
REMARK  152  A    between atoms: _385  and  _386
REMARK  153  A    between atoms: _386  and  _387
REMARK  154  A    between atoms: _387  and  _388
REMARK  155  A    between atoms: _392  and  _394
REMARK  156  A    between atoms: _394  and  _395
REMARK  157  A    between atoms: _394  and  _397
REMARK  158  A    between atoms: _397  and  _398
REMARK  159  A    between atoms: _400  and  _402
REMARK  160  A    between atoms: _402  and  _403
REMARK  161  A    between atoms: _402  and  _405
REMARK  162  A    between atoms: _405  and  _406
REMARK  163  A    between atoms: _411  and  _412
REMARK  164  A    between atoms: _414  and  _416
REMARK  165  A    between atoms: _416  and  _417
REMARK  166  A    between atoms: _416  and  _419
REMARK  167  A    between atoms: _419  and  _420
REMARK  168  A    between atoms: _422  and  _424
REMARK  169  A    between atoms: _424  and  _425
REMARK  170  A    between atoms: _428  and  _430
REMARK  171  A    between atoms: _430  and  _431
REMARK  172  A    between atoms: _430  and  _433
REMARK  173  A    between atoms: _433  and  _434
REMARK  174  A    between atoms: _437  and  _439
REMARK  175  A    between atoms: _439  and  _440
REMARK  176  A    between atoms: _439  and  _442
REMARK  177  A    between atoms: _442  and  _443
REMARK  178  A    between atoms: _453  and  _455
REMARK  179  A    between atoms: _455  and  _456
REMARK  180  A    between atoms: _455  and  _458
REMARK  181  A    between atoms: _458  and  _459
REMARK  182  A    between atoms: _459  and  _460
REMARK  183  A    between atoms: _465  and  _467
REMARK  184  A    between atoms: _467  and  _468
REMARK  185  A    between atoms: _467  and  _470
REMARK  186  A    between atoms: _473  and  _475
REMARK  187  A    between atoms: _475  and  _476
REMARK  188  A    between atoms: _475  and  _478
REMARK  189  A    between atoms: _478  and  _479
REMARK  190  A    between atoms: _482  and  _484
REMARK  191  A    between atoms: _484  and  _485
REMARK  192  A    between atoms: _488  and  _490
REMARK  193  A    between atoms: _490  and  _491
REMARK  194  A    between atoms: _490  and  _493
REMARK  195  A    between atoms: _496  and  _498
REMARK  196  A    between atoms: _498  and  _499
REMARK  197  A    between atoms: _498  and  _501
REMARK  198  A    between atoms: _501  and  _502
REMARK  199  A    between atoms: _508  and  _510
REMARK  200  A    between atoms: _510  and  _511
REMARK  201  A    between atoms: _510  and  _513
REMARK  202  A    between atoms: _513  and  _514
REMARK  203  A    between atoms: _516  and  _518
REMARK  204  A    between atoms: _518  and  _519
REMARK  205  A    between atoms: _518  and  _521
REMARK  206  A    between atoms: _521  and  _522
REMARK  207  A    between atoms: _527  and  _529
REMARK  208  A    between atoms: _529  and  _530
REMARK  209  A    between atoms: _529  and  _532
REMARK  210  A    between atoms: _532  and  _533
REMARK  211  A    between atoms: _543  and  _545
REMARK  212  A    between atoms: _545  and  _546
REMARK  213  A    between atoms: _545  and  _548
REMARK  214  A    between atoms: _548  and  _549
REMARK  215  A    between atoms: _552  and  _554
REMARK  216  A    between atoms: _554  and  _555
REMARK  217  A    between atoms: _554  and  _557
REMARK  218  A    between atoms: _557  and  _558
REMARK  219  A    between atoms: _563  and  _564
REMARK  220  A    between atoms: _566  and  _568
REMARK  221  A    between atoms: _568  and  _569
REMARK  222  A    between atoms: _568  and  _571
REMARK  223  A    between atoms: _571  and  _572
REMARK  224  A    between atoms: _575  and  _577
REMARK  225  A    between atoms: _577  and  _578
REMARK  226  A    between atoms: _577  and  _580
REMARK  227  A    between atoms: _580  and  _581
REMARK  228  A    between atoms: _581  and  _582
REMARK  229  A    between atoms: _585  and  _587
REMARK  230  A    between atoms: _587  and  _588
REMARK  231  A    between atoms: _587  and  _590
REMARK  232  A    between atoms: _590  and  _591
REMARK  233  A    between atoms: _596  and  _598
REMARK  234  A    between atoms: _598  and  _599
REMARK  235  A    between atoms: _601  and  _603
REMARK  236  A    between atoms: _603  and  _604
REMARK  237  A    between atoms: _603  and  _606
REMARK  238  A    between atoms: _606  and  _607
REMARK  239  A    between atoms: _607  and  _608
REMARK  240  A    between atoms: _610  and  _612
REMARK  241  A    between atoms: _612  and  _613
REMARK  242  A    between atoms: _612  and  _615
REMARK  243  A    between atoms: _615  and  _616
REMARK  244  A    between atoms: _619  and  _621
REMARK  245  A    between atoms: _621  and  _622
REMARK  246  A    between atoms: _621  and  _624
REMARK  247  A    between atoms: _624  and  _625
REMARK  248  A    between atoms: _635  and  _637
REMARK  249  A    between atoms: _637  and  _638
REMARK  250  A    between atoms: _637  and  _640
REMARK  251  A    between atoms: _640  and  _641
REMARK  252  A    between atoms: _643  and  _645
REMARK  253  A    between atoms: _645  and  _646
REMARK  254  A    between atoms: _645  and  _648
REMARK  255  A    between atoms: _648  and  _649
REMARK  256  A    between atoms: _654  and  _656
REMARK  257  A    between atoms: _656  and  _657
REMARK  258  A    between atoms: _656  and  _659
REMARK  259  A    between atoms: _659  and  _660
REMARK  260  A    between atoms: _666  and  _668
REMARK  261  A    between atoms: _668  and  _669
REMARK  262  A    between atoms: _668  and  _671
REMARK  263  A    between atoms: _671  and  _672
REMARK  264  A    between atoms: _672  and  _673
REMARK  265  A    between atoms: _676  and  _678
REMARK  266  A    between atoms: _678  and  _679
REMARK  267  A    between atoms: _678  and  _681
REMARK  268  A    between atoms: _681  and  _682
REMARK  269  A    between atoms: _692  and  _694
REMARK  270  A    between atoms: _694  and  _695
REMARK  271  A    between atoms: _694  and  _697
REMARK  272  A    between atoms: _697  and  _698
REMARK  273  A    between atoms: _701  and  _703
REMARK  274  A    between atoms: _703  and  _704
REMARK  275  A    between atoms: _703  and  _706
REMARK  276  A    between atoms: _706  and  _707
REMARK  277  A    between atoms: _709  and  _711
REMARK  278  A    between atoms: _711  and  _712
REMARK  279  A    between atoms: _711  and  _714
REMARK  280  A    between atoms: _714  and  _715
REMARK  281  A    between atoms: _717  and  _719
REMARK  282  A    between atoms: _719  and  _720
REMARK  283  A    between atoms: _719  and  _722
REMARK  284  A    between atoms: _722  and  _723
REMARK                            x       y       z     vdW  Elec       q    Type
REMARK                         _______ _______ _______ _____ _____    ______ ____
ROOT
ATOM      1  O   HOH     1       0.661   5.149  47.310  0.00  0.00    +0.000 OA
ENDROOT
TORSDOF 0
REMARK  Name = ../refined-set-2016/4qlk/4qlk_pocket.pdb
REMARK  284 active torsions:
REMARK  status: ('A' for Active; 'I' for Inactive)
REMARK    1  A    between atoms: _1  and  _3
REMARK    2  A    between atoms: _3  and  _4
REMARK    3  A    between atoms: _3  and  _6
REMARK    4  A    between atoms: _9  and  _11
REMARK    5  A    between atoms: _11  and  _12
REMARK    6  A    between atoms: _11  and  _14
REMARK    7  A    between atoms: _14  and  _15
REMARK    8  A    between atoms: _18  and  _20
REMARK    9  A    between atoms: _20  and  _21
REMARK   10  A    between atoms: _20  and  _23
REMARK   11  A    between atoms: _23  and  _24
REMARK   12  A    between atoms: _26  and  _28
REMARK   13  A    between atoms: _28  and  _29
REMARK   14  A    between atoms: _28  and  _31
REMARK   15  A    between atoms: _31  and  _32
REMARK   16  A    between atoms: _32  and  _33
REMARK   17  A    between atoms: _38  and  _40
REMARK   18  A    between atoms: _40  and  _41
REMARK   19  A    between atoms: _40  and  _43
REMARK   20  A    between atoms: _43  and  _44
REMARK   21  A    between atoms: _44  and  _45
REMARK   22  A    between atoms: _45  and  _46
REMARK   23  A    between atoms: _55  and  _57
REMARK   24  A    between atoms: _57  and  _58
REMARK   25  A    between atoms: _57  and  _60
REMARK   26  A    between atoms: _60  and  _61
REMARK   27  A    between atoms: _66  and  _68
REMARK   28  A    between atoms: _68  and  _69
REMARK   29  A    between atoms: _68  and  _71
REMARK   30  A    between atoms: _71  and  _72
REMARK   31  A    between atoms: _77  and  _78
REMARK   32  A    between atoms: _80  and  _82
REMARK   33  A    between atoms: _82  and  _83
REMARK   34  A    between atoms: _82  and  _85
REMARK   35  A    between atoms: _85  and  _86
REMARK   36  A    between atoms: _91  and  _93
REMARK   37  A    between atoms: _93  and  _94
REMARK   38  A    between atoms: _93  and  _96
REMARK   39  A    between atoms: _96  and  _97
REMARK   40  A    between atoms: _97  and  _98
REMARK   41  A    between atoms: _103  and  _105
REMARK   42  A    between atoms: _105  and  _106
REMARK   43  A    between atoms: _105  and  _108
REMARK   44  A    between atoms: _108  and  _109
REMARK   45  A    between atoms: _109  and  _110
REMARK   46  A    between atoms: _110  and  _111
REMARK   47  A    between atoms: _120  and  _122
REMARK   48  A    between atoms: _122  and  _123
REMARK   49  A    between atoms: _122  and  _125
REMARK   50  A    between atoms: _125  and  _126
REMARK   51  A    between atoms: _129  and  _131
REMARK   52  A    between atoms: _131  and  _132
REMARK   53  A    between atoms: _131  and  _134
REMARK   54  A    between atoms: _134  and  _135
REMARK   55  A    between atoms: _138  and  _140
REMARK   56  A    between atoms: _140  and  _141
REMARK   57  A    between atoms: _140  and  _143
REMARK   58  A    between atoms: _143  and  _144
REMARK   59  A    between atoms: _147  and  _149
REMARK   60  A    between atoms: _149  and  _150
REMARK   61  A    between atoms: _149  and  _152
REMARK   62  A    between atoms: _152  and  _153
REMARK   63  A    between atoms: _156  and  _158
REMARK   64  A    between atoms: _158  and  _159
REMARK   65  A    between atoms: _158  and  _161
REMARK   66  A    between atoms: _161  and  _162
REMARK   67  A    between atoms: _162  and  _163
REMARK   68  A    between atoms: _168  and  _170
REMARK   69  A    between atoms: _170  and  _171
REMARK   70  A    between atoms: _170  and  _173
REMARK   71  A    between atoms: _173  and  _174
REMARK   72  A    between atoms: _177  and  _179
REMARK   73  A    between atoms: _179  and  _180
REMARK   74  A    between atoms: _179  and  _182
REMARK   75  A    between atoms: _182  and  _183
REMARK   76  A    between atoms: _188  and  _190
REMARK   77  A    between atoms: _190  and  _191
REMARK   78  A    between atoms: _190  and  _193
REMARK   79  A    between atoms: _196  and  _198
REMARK   80  A    between atoms: _198  and  _199
REMARK   81  A    between atoms: _198  and  _201
REMARK   82  A    between atoms: _201  and  _202
REMARK   83  A    between atoms: _205  and  _207
REMARK   84  A    between atoms: _207  and  _208
REMARK   85  A    between atoms: _207  and  _210
REMARK   86  A    between atoms: _210  and  _211
REMARK   87  A    between atoms: _214  and  _216
REMARK   88  A    between atoms: _216  and  _217
REMARK   89  A    between atoms: _216  and  _219
REMARK   90  A    between atoms: _219  and  _220
REMARK   91  A    between atoms: _226  and  _228
REMARK   92  A    between atoms: _228  and  _229
REMARK   93  A    between atoms: _228  and  _231
REMARK   94  A    between atoms: _231  and  _232
REMARK   95  A    between atoms: _237  and  _239
REMARK   96  A    between atoms: _239  and  _240
REMARK   97  A    between atoms: _239  and  _242
REMARK   98  A    between atoms: _242  and  _243
REMARK   99  A    between atoms: _253  and  _255
REMARK  100  A    between atoms: _255  and  _256
REMARK  101  A    between atoms: _255  and  _258
REMARK  102  A    between atoms: _258  and  _259
REMARK  103  A    between atoms: _264  and  _265
REMARK  104  A    between atoms: _267  and  _269
REMARK  105  A    between atoms: _269  and  _270
REMARK  106  A    between atoms: _273  and  _275
REMARK  107  A    between atoms: _275  and  _276
REMARK  108  A    between atoms: _275  and  _278
REMARK  109  A    between atoms: _278  and  _279
REMARK  110  A    between atoms: _285  and  _287
REMARK  111  A    between atoms: _287  and  _288
REMARK  112  A    between atoms: _287  and  _290
REMARK  113  A    between atoms: _290  and  _291
REMARK  114  A    between atoms: _296  and  _298
REMARK  115  A    between atoms: _298  and  _299
REMARK  116  A    between atoms: _298  and  _301
REMARK  117  A    between atoms: _301  and  _302
REMARK  118  A    between atoms: _307  and  _309
REMARK  119  A    between atoms: _309  and  _310
REMARK  120  A    between atoms: _309  and  _312
REMARK  121  A    between atoms: _312  and  _313
REMARK  122  A    between atoms: _313  and  _314
REMARK  123  A    between atoms: _319  and  _321
REMARK  124  A    between atoms: _321  and  _322
REMARK  125  A    between atoms: _321  and  _324
REMARK  126  A    between atoms: _324  and  _325
REMARK  127  A    between atoms: _330  and  _331
REMARK  128  A    between atoms: _333  and  _335
REMARK  129  A    between atoms: _335  and  _336
REMARK  130  A    between atoms: _335  and  _338
REMARK  131  A    between atoms: _338  and  _339
REMARK  132  A    between atoms: _342  and  _344
REMARK  133  A    between atoms: _344  and  _345
REMARK  134  A    between atoms: _348  and  _350
REMARK  135  A    between atoms: _350  and  _351
REMARK  136  A    between atoms: _350  and  _353
REMARK  137  A    between atoms: _353  and  _354
REMARK  138  A    between atoms: _356  and  _358
REMARK  139  A    between atoms: _358  and  _359
REMARK  140  A    between atoms: _358  and  _361
REMARK  141  A    between atoms: _361  and  _362
REMARK  142  A    between atoms: _367  and  _368
REMARK  143  A    between atoms: _370  and  _372
REMARK  144  A    between atoms: _372  and  _373
REMARK  145  A    between atoms: _372  and  _375
REMARK  146  A    between atoms: _375  and  _376
REMARK  147  A    between atoms: _376  and  _377
REMARK  148  A    between atoms: _379  and  _381
REMARK  149  A    between atoms: _381  and  _382
REMARK  150  A    between atoms: _381  and  _384
REMARK  151  A    between atoms: _384  and  _385
REMARK  152  A    between atoms: _385  and  _386
REMARK  153  A    between atoms: _386  and  _387
REMARK  154  A    between atoms: _387  and  _388
REMARK  155  A    between atoms: _392  and  _394
REMARK  156  A    between atoms: _394  and  _395
REMARK  157  A    between atoms: _394  and  _397
REMARK  158  A    between atoms: _397  and  _398
REMARK  159  A    between atoms: _400  and  _402
REMARK  160  A    between atoms: _402  and  _403
REMARK  161  A    between atoms: _402  and  _405
REMARK  162  A    between atoms: _405  and  _406
REMARK  163  A    between atoms: _411  and  _412
REMARK  164  A    between atoms: _414  and  _416
REMARK  165  A    between atoms: _416  and  _417
REMARK  166  A    between atoms: _416  and  _419
REMARK  167  A    between atoms: _419  and  _420
REMARK  168  A    between atoms: _422  and  _424
REMARK  169  A    between atoms: _424  and  _425
REMARK  170  A    between atoms: _428  and  _430
REMARK  171  A    between atoms: _430  and  _431
REMARK  172  A    between atoms: _430  and  _433
REMARK  173  A    between atoms: _433  and  _434
REMARK  174  A    between atoms: _437  and  _439
REMARK  175  A    between atoms: _439  and  _440
REMARK  176  A    between atoms: _439  and  _442
REMARK  177  A    between atoms: _442  and  _443
REMARK  178  A    between atoms: _453  and  _455
REMARK  179  A    between atoms: _455  and  _456
REMARK  180  A    between atoms: _455  and  _458
REMARK  181  A    between atoms: _458  and  _459
REMARK  182  A    between atoms: _459  and  _460
REMARK  183  A    between atoms: _465  and  _467
REMARK  184  A    between atoms: _467  and  _468
REMARK  185  A    between atoms: _467  and  _470
REMARK  186  A    between atoms: _473  and  _475
REMARK  187  A    between atoms: _475  and  _476
REMARK  188  A    between atoms: _475  and  _478
REMARK  189  A    between atoms: _478  and  _479
REMARK  190  A    between atoms: _482  and  _484
REMARK  191  A    between atoms: _484  and  _485
REMARK  192  A    between atoms: _488  and  _490
REMARK  193  A    between atoms: _490  and  _491
REMARK  194  A    between atoms: _490  and  _493
REMARK  195  A    between atoms: _496  and  _498
REMARK  196  A    between atoms: _498  and  _499
REMARK  197  A    between atoms: _498  and  _501
REMARK  198  A    between atoms: _501  and  _502
REMARK  199  A    between atoms: _508  and  _510
REMARK  200  A    between atoms: _510  and  _511
REMARK  201  A    between atoms: _510  and  _513
REMARK  202  A    between atoms: _513  and  _514
REMARK  203  A    between atoms: _516  and  _518
REMARK  204  A    between atoms: _518  and  _519
REMARK  205  A    between atoms: _518  and  _521
REMARK  206  A    between atoms: _521  and  _522
REMARK  207  A    between atoms: _527  and  _529
REMARK  208  A    between atoms: _529  and  _530
REMARK  209  A    between atoms: _529  and  _532
REMARK  210  A    between atoms: _532  and  _533
REMARK  211  A    between atoms: _543  and  _545
REMARK  212  A    between atoms: _545  and  _546
REMARK  213  A    between atoms: _545  and  _548
REMARK  214  A    between atoms: _548  and  _549
REMARK  215  A    between atoms: _552  and  _554
REMARK  216  A    between atoms: _554  and  _555
REMARK  217  A    between atoms: _554  and  _557
REMARK  218  A    between atoms: _557  and  _558
REMARK  219  A    between atoms: _563  and  _564
REMARK  220  A    between atoms: _566  and  _568
REMARK  221  A    between atoms: _568  and  _569
REMARK  222  A    between atoms: _568  and  _571
REMARK  223  A    between atoms: _571  and  _572
REMARK  224  A    between atoms: _575  and  _577
REMARK  225  A    between atoms: _577  and  _578
REMARK  226  A    between atoms: _577  and  _580
REMARK  227  A    between atoms: _580  and  _581
REMARK  228  A    between atoms: _581  and  _582
REMARK  229  A    between atoms: _585  and  _587
REMARK  230  A    between atoms: _587  and  _588
REMARK  231  A    between atoms: _587  and  _590
REMARK  232  A    between atoms: _590  and  _591
REMARK  233  A    between atoms: _596  and  _598
REMARK  234  A    between atoms: _598  and  _599
REMARK  235  A    between atoms: _601  and  _603
REMARK  236  A    between atoms: _603  and  _604
REMARK  237  A    between atoms: _603  and  _606
REMARK  238  A    between atoms: _606  and  _607
REMARK  239  A    between atoms: _607  and  _608
REMARK  240  A    between atoms: _610  and  _612
REMARK  241  A    between atoms: _612  and  _613
REMARK  242  A    between atoms: _612  and  _615
REMARK  243  A    between atoms: _615  and  _616
REMARK  244  A    between atoms: _619  and  _621
REMARK  245  A    between atoms: _621  and  _622
REMARK  246  A    between atoms: _621  and  _624
REMARK  247  A    between atoms: _624  and  _625
REMARK  248  A    between atoms: _635  and  _637
REMARK  249  A    between atoms: _637  and  _638
REMARK  250  A    between atoms: _637  and  _640
REMARK  251  A    between atoms: _640  and  _641
REMARK  252  A    between atoms: _643  and  _645
REMARK  253  A    between atoms: _645  and  _646
REMARK  254  A    between atoms: _645  and  _648
REMARK  255  A    between atoms: _648  and  _649
REMARK  256  A    between atoms: _654  and  _656
REMARK  257  A    between atoms: _656  and  _657
REMARK  258  A    between atoms: _656  and  _659
REMARK  259  A    between atoms: _659  and  _660
REMARK  260  A    between atoms: _666  and  _668
REMARK  261  A    between atoms: _668  and  _669
REMARK  262  A    between atoms: _668  and  _671
REMARK  263  A    between atoms: _671  and  _672
REMARK  264  A    between atoms: _672  and  _673
REMARK  265  A    between atoms: _676  and  _678
REMARK  266  A    between atoms: _678  and  _679
REMARK  267  A    between atoms: _678  and  _681
REMARK  268  A    between atoms: _681  and  _682
REMARK  269  A    between atoms: _692  and  _694
REMARK  270  A    between atoms: _694  and  _695
REMARK  271  A    between atoms: _694  and  _697
REMARK  272  A    between atoms: _697  and  _698
REMARK  273  A    between atoms: _701  and  _703
REMARK  274  A    between atoms: _703  and  _704
REMARK  275  A    between atoms: _703  and  _706
REMARK  276  A    between atoms: _706  and  _707
REMARK  277  A    between atoms: _709  and  _711
REMARK  278  A    between atoms: _711  and  _712
REMARK  279  A    between atoms: _711  and  _714
REMARK  280  A    between atoms: _714  and  _715
REMARK  281  A    between atoms: _717  and  _719
REMARK  282  A    between atoms: _719  and  _720
REMARK  283  A    between atoms: _719  and  _722
REMARK  284  A    between atoms: _722  and  _723
REMARK                            x       y       z     vdW  Elec       q    Type
REMARK                         _______ _______ _______ _____ _____    ______ ____
ROOT
ATOM      1  O   HOH     1     -13.663   1.024  59.604  0.00  0.00    +0.000 OA
ENDROOT
TORSDOF 0
REMARK  Name = ../refined-set-2016/4qlk/4qlk_pocket.pdb
REMARK  284 active torsions:
REMARK  status: ('A' for Active; 'I' for Inactive)
REMARK    1  A    between atoms: _1  and  _3
REMARK    2  A    between atoms: _3  and  _4
REMARK    3  A    between atoms: _3  and  _6
REMARK    4  A    between atoms: _9  and  _11
REMARK    5  A    between atoms: _11  and  _12
REMARK    6  A    between atoms: _11  and  _14
REMARK    7  A    between atoms: _14  and  _15
REMARK    8  A    between atoms: _18  and  _20
REMARK    9  A    between atoms: _20  and  _21
REMARK   10  A    between atoms: _20  and  _23
REMARK   11  A    between atoms: _23  and  _24
REMARK   12  A    between atoms: _26  and  _28
REMARK   13  A    between atoms: _28  and  _29
REMARK   14  A    between atoms: _28  and  _31
REMARK   15  A    between atoms: _31  and  _32
REMARK   16  A    between atoms: _32  and  _33
REMARK   17  A    between atoms: _38  and  _40
REMARK   18  A    between atoms: _40  and  _41
REMARK   19  A    between atoms: _40  and  _43
REMARK   20  A    between atoms: _43  and  _44
REMARK   21  A    between atoms: _44  and  _45
REMARK   22  A    between atoms: _45  and  _46
REMARK   23  A    between atoms: _55  and  _57
REMARK   24  A    between atoms: _57  and  _58
REMARK   25  A    between atoms: _57  and  _60
REMARK   26  A    between atoms: _60  and  _61
REMARK   27  A    between atoms: _66  and  _68
REMARK   28  A    between atoms: _68  and  _69
REMARK   29  A    between atoms: _68  and  _71
REMARK   30  A    between atoms: _71  and  _72
REMARK   31  A    between atoms: _77  and  _78
REMARK   32  A    between atoms: _80  and  _82
REMARK   33  A    between atoms: _82  and  _83
REMARK   34  A    between atoms: _82  and  _85
REMARK   35  A    between atoms: _85  and  _86
REMARK   36  A    between atoms: _91  and  _93
REMARK   37  A    between atoms: _93  and  _94
REMARK   38  A    between atoms: _93  and  _96
REMARK   39  A    between atoms: _96  and  _97
REMARK   40  A    between atoms: _97  and  _98
REMARK   41  A    between atoms: _103  and  _105
REMARK   42  A    between atoms: _105  and  _106
REMARK   43  A    between atoms: _105  and  _108
REMARK   44  A    between atoms: _108  and  _109
REMARK   45  A    between atoms: _109  and  _110
REMARK   46  A    between atoms: _110  and  _111
REMARK   47  A    between atoms: _120  and  _122
REMARK   48  A    between atoms: _122  and  _123
REMARK   49  A    between atoms: _122  and  _125
REMARK   50  A    between atoms: _125  and  _126
REMARK   51  A    between atoms: _129  and  _131
REMARK   52  A    between atoms: _131  and  _132
REMARK   53  A    between atoms: _131  and  _134
REMARK   54  A    between atoms: _134  and  _135
REMARK   55  A    between atoms: _138  and  _140
REMARK   56  A    between atoms: _140  and  _141
REMARK   57  A    between atoms: _140  and  _143
REMARK   58  A    between atoms: _143  and  _144
REMARK   59  A    between atoms: _147  and  _149
REMARK   60  A    between atoms: _149  and  _150
REMARK   61  A    between atoms: _149  and  _152
REMARK   62  A    between atoms: _152  and  _153
REMARK   63  A    between atoms: _156  and  _158
REMARK   64  A    between atoms: _158  and  _159
REMARK   65  A    between atoms: _158  and  _161
REMARK   66  A    between atoms: _161  and  _162
REMARK   67  A    between atoms: _162  and  _163
REMARK   68  A    between atoms: _168  and  _170
REMARK   69  A    between atoms: _170  and  _171
REMARK   70  A    between atoms: _170  and  _173
REMARK   71  A    between atoms: _173  and  _174
REMARK   72  A    between atoms: _177  and  _179
REMARK   73  A    between atoms: _179  and  _180
REMARK   74  A    between atoms: _179  and  _182
REMARK   75  A    between atoms: _182  and  _183
REMARK   76  A    between atoms: _188  and  _190
REMARK   77  A    between atoms: _190  and  _191
REMARK   78  A    between atoms: _190  and  _193
REMARK   79  A    between atoms: _196  and  _198
REMARK   80  A    between atoms: _198  and  _199
REMARK   81  A    between atoms: _198  and  _201
REMARK   82  A    between atoms: _201  and  _202
REMARK   83  A    between atoms: _205  and  _207
REMARK   84  A    between atoms: _207  and  _208
REMARK   85  A    between atoms: _207  and  _210
REMARK   86  A    between atoms: _210  and  _211
REMARK   87  A    between atoms: _214  and  _216
REMARK   88  A    between atoms: _216  and  _217
REMARK   89  A    between atoms: _216  and  _219
REMARK   90  A    between atoms: _219  and  _220
REMARK   91  A    between atoms: _226  and  _228
REMARK   92  A    between atoms: _228  and  _229
REMARK   93  A    between atoms: _228  and  _231
REMARK   94  A    between atoms: _231  and  _232
REMARK   95  A    between atoms: _237  and  _239
REMARK   96  A    between atoms: _239  and  _240
REMARK   97  A    between atoms: _239  and  _242
REMARK   98  A    between atoms: _242  and  _243
REMARK   99  A    between atoms: _253  and  _255
REMARK  100  A    between atoms: _255  and  _256
REMARK  101  A    between atoms: _255  and  _258
REMARK  102  A    between atoms: _258  and  _259
REMARK  103  A    between atoms: _264  and  _265
REMARK  104  A    between atoms: _267  and  _269
REMARK  105  A    between atoms: _269  and  _270
REMARK  106  A    between atoms: _273  and  _275
REMARK  107  A    between atoms: _275  and  _276
REMARK  108  A    between atoms: _275  and  _278
REMARK  109  A    between atoms: _278  and  _279
REMARK  110  A    between atoms: _285  and  _287
REMARK  111  A    between atoms: _287  and  _288
REMARK  112  A    between atoms: _287  and  _290
REMARK  113  A    between atoms: _290  and  _291
REMARK  114  A    between atoms: _296  and  _298
REMARK  115  A    between atoms: _298  and  _299
REMARK  116  A    between atoms: _298  and  _301
REMARK  117  A    between atoms: _301  and  _302
REMARK  118  A    between atoms: _307  and  _309
REMARK  119  A    between atoms: _309  and  _310
REMARK  120  A    between atoms: _309  and  _312
REMARK  121  A    between atoms: _312  and  _313
REMARK  122  A    between atoms: _313  and  _314
REMARK  123  A    between atoms: _319  and  _321
REMARK  124  A    between atoms: _321  and  _322
REMARK  125  A    between atoms: _321  and  _324
REMARK  126  A    between atoms: _324  and  _325
REMARK  127  A    between atoms: _330  and  _331
REMARK  128  A    between atoms: _333  and  _335
REMARK  129  A    between atoms: _335  and  _336
REMARK  130  A    between atoms: _335  and  _338
REMARK  131  A    between atoms: _338  and  _339
REMARK  132  A    between atoms: _342  and  _344
REMARK  133  A    between atoms: _344  and  _345
REMARK  134  A    between atoms: _348  and  _350
REMARK  135  A    between atoms: _350  and  _351
REMARK  136  A    between atoms: _350  and  _353
REMARK  137  A    between atoms: _353  and  _354
REMARK  138  A    between atoms: _356  and  _358
REMARK  139  A    between atoms: _358  and  _359
REMARK  140  A    between atoms: _358  and  _361
REMARK  141  A    between atoms: _361  and  _362
REMARK  142  A    between atoms: _367  and  _368
REMARK  143  A    between atoms: _370  and  _372
REMARK  144  A    between atoms: _372  and  _373
REMARK  145  A    between atoms: _372  and  _375
REMARK  146  A    between atoms: _375  and  _376
REMARK  147  A    between atoms: _376  and  _377
REMARK  148  A    between atoms: _379  and  _381
REMARK  149  A    between atoms: _381  and  _382
REMARK  150  A    between atoms: _381  and  _384
REMARK  151  A    between atoms: _384  and  _385
REMARK  152  A    between atoms: _385  and  _386
REMARK  153  A    between atoms: _386  and  _387
REMARK  154  A    between atoms: _387  and  _388
REMARK  155  A    between atoms: _392  and  _394
REMARK  156  A    between atoms: _394  and  _395
REMARK  157  A    between atoms: _394  and  _397
REMARK  158  A    between atoms: _397  and  _398
REMARK  159  A    between atoms: _400  and  _402
REMARK  160  A    between atoms: _402  and  _403
REMARK  161  A    between atoms: _402  and  _405
REMARK  162  A    between atoms: _405  and  _406
REMARK  163  A    between atoms: _411  and  _412
REMARK  164  A    between atoms: _414  and  _416
REMARK  165  A    between atoms: _416  and  _417
REMARK  166  A    between atoms: _416  and  _419
REMARK  167  A    between atoms: _419  and  _420
REMARK  168  A    between atoms: _422  and  _424
REMARK  169  A    between atoms: _424  and  _425
REMARK  170  A    between atoms: _428  and  _430
REMARK  171  A    between atoms: _430  and  _431
REMARK  172  A    between atoms: _430  and  _433
REMARK  173  A    between atoms: _433  and  _434
REMARK  174  A    between atoms: _437  and  _439
REMARK  175  A    between atoms: _439  and  _440
REMARK  176  A    between atoms: _439  and  _442
REMARK  177  A    between atoms: _442  and  _443
REMARK  178  A    between atoms: _453  and  _455
REMARK  179  A    between atoms: _455  and  _456
REMARK  180  A    between atoms: _455  and  _458
REMARK  181  A    between atoms: _458  and  _459
REMARK  182  A    between atoms: _459  and  _460
REMARK  183  A    between atoms: _465  and  _467
REMARK  184  A    between atoms: _467  and  _468
REMARK  185  A    between atoms: _467  and  _470
REMARK  186  A    between atoms: _473  and  _475
REMARK  187  A    between atoms: _475  and  _476
REMARK  188  A    between atoms: _475  and  _478
REMARK  189  A    between atoms: _478  and  _479
REMARK  190  A    between atoms: _482  and  _484
REMARK  191  A    between atoms: _484  and  _485
REMARK  192  A    between atoms: _488  and  _490
REMARK  193  A    between atoms: _490  and  _491
REMARK  194  A    between atoms: _490  and  _493
REMARK  195  A    between atoms: _496  and  _498
REMARK  196  A    between atoms: _498  and  _499
REMARK  197  A    between atoms: _498  and  _501
REMARK  198  A    between atoms: _501  and  _502
REMARK  199  A    between atoms: _508  and  _510
REMARK  200  A    between atoms: _510  and  _511
REMARK  201  A    between atoms: _510  and  _513
REMARK  202  A    between atoms: _513  and  _514
REMARK  203  A    between atoms: _516  and  _518
REMARK  204  A    between atoms: _518  and  _519
REMARK  205  A    between atoms: _518  and  _521
REMARK  206  A    between atoms: _521  and  _522
REMARK  207  A    between atoms: _527  and  _529
REMARK  208  A    between atoms: _529  and  _530
REMARK  209  A    between atoms: _529  and  _532
REMARK  210  A    between atoms: _532  and  _533
REMARK  211  A    between atoms: _543  and  _545
REMARK  212  A    between atoms: _545  and  _546
REMARK  213  A    between atoms: _545  and  _548
REMARK  214  A    between atoms: _548  and  _549
REMARK  215  A    between atoms: _552  and  _554
REMARK  216  A    between atoms: _554  and  _555
REMARK  217  A    between atoms: _554  and  _557
REMARK  218  A    between atoms: _557  and  _558
REMARK  219  A    between atoms: _563  and  _564
REMARK  220  A    between atoms: _566  and  _568
REMARK  221  A    between atoms: _568  and  _569
REMARK  222  A    between atoms: _568  and  _571
REMARK  223  A    between atoms: _571  and  _572
REMARK  224  A    between atoms: _575  and  _577
REMARK  225  A    between atoms: _577  and  _578
REMARK  226  A    between atoms: _577  and  _580
REMARK  227  A    between atoms: _580  and  _581
REMARK  228  A    between atoms: _581  and  _582
REMARK  229  A    between atoms: _585  and  _587
REMARK  230  A    between atoms: _587  and  _588
REMARK  231  A    between atoms: _587  and  _590
REMARK  232  A    between atoms: _590  and  _591
REMARK  233  A    between atoms: _596  and  _598
REMARK  234  A    between atoms: _598  and  _599
REMARK  235  A    between atoms: _601  and  _603
REMARK  236  A    between atoms: _603  and  _604
REMARK  237  A    between atoms: _603  and  _606
REMARK  238  A    between atoms: _606  and  _607
REMARK  239  A    between atoms: _607  and  _608
REMARK  240  A    between atoms: _610  and  _612
REMARK  241  A    between atoms: _612  and  _613
REMARK  242  A    between atoms: _612  and  _615
REMARK  243  A    between atoms: _615  and  _616
REMARK  244  A    between atoms: _619  and  _621
REMARK  245  A    between atoms: _621  and  _622
REMARK  246  A    between atoms: _621  and  _624
REMARK  247  A    between atoms: _624  and  _625
REMARK  248  A    between atoms: _635  and  _637
REMARK  249  A    between atoms: _637  and  _638
REMARK  250  A    between atoms: _637  and  _640
REMARK  251  A    between atoms: _640  and  _641
REMARK  252  A    between atoms: _643  and  _645
REMARK  253  A    between atoms: _645  and  _646
REMARK  254  A    between atoms: _645  and  _648
REMARK  255  A    between atoms: _648  and  _649
REMARK  256  A    between atoms: _654  and  _656
REMARK  257  A    between atoms: _656  and  _657
REMARK  258  A    between atoms: _656  and  _659
REMARK  259  A    between atoms: _659  and  _660
REMARK  260  A    between atoms: _666  and  _668
REMARK  261  A    between atoms: _668  and  _669
REMARK  262  A    between atoms: _668  and  _671
REMARK  263  A    between atoms: _671  and  _672
REMARK  264  A    between atoms: _672  and  _673
REMARK  265  A    between atoms: _676  and  _678
REMARK  266  A    between atoms: _678  and  _679
REMARK  267  A    between atoms: _678  and  _681
REMARK  268  A    between atoms: _681  and  _682
REMARK  269  A    between atoms: _692  and  _694
REMARK  270  A    between atoms: _694  and  _695
REMARK  271  A    between atoms: _694  and  _697
REMARK  272  A    between atoms: _697  and  _698
REMARK  273  A    between atoms: _701  and  _703
REMARK  274  A    between atoms: _703  and  _704
REMARK  275  A    between atoms: _703  and  _706
REMARK  276  A    between atoms: _706  and  _707
REMARK  277  A    between atoms: _709  and  _711
REMARK  278  A    between atoms: _711  and  _712
REMARK  279  A    between atoms: _711  and  _714
REMARK  280  A    between atoms: _714  and  _715
REMARK  281  A    between atoms: _717  and  _719
REMARK  282  A    between atoms: _719  and  _720
REMARK  283  A    between atoms: _719  and  _722
REMARK  284  A    between atoms: _722  and  _723
REMARK                            x       y       z     vdW  Elec       q    Type
REMARK                         _______ _______ _______ _____ _____    ______ ____
ROOT
ATOM      1  O   HOH     1      -6.021   3.406  57.009  0.00  0.00    +0.000 OA
ENDROOT
TORSDOF 0
REMARK  Name = ../refined-set-2016/4qlk/4qlk_pocket.pdb
REMARK  284 active torsions:
REMARK  status: ('A' for Active; 'I' for Inactive)
REMARK    1  A    between atoms: _1  and  _3
REMARK    2  A    between atoms: _3  and  _4
REMARK    3  A    between atoms: _3  and  _6
REMARK    4  A    between atoms: _9  and  _11
REMARK    5  A    between atoms: _11  and  _12
REMARK    6  A    between atoms: _11  and  _14
REMARK    7  A    between atoms: _14  and  _15
REMARK    8  A    between atoms: _18  and  _20
REMARK    9  A    between atoms: _20  and  _21
REMARK   10  A    between atoms: _20  and  _23
REMARK   11  A    between atoms: _23  and  _24
REMARK   12  A    between atoms: _26  and  _28
REMARK   13  A    between atoms: _28  and  _29
REMARK   14  A    between atoms: _28  and  _31
REMARK   15  A    between atoms: _31  and  _32
REMARK   16  A    between atoms: _32  and  _33
REMARK   17  A    between atoms: _38  and  _40
REMARK   18  A    between atoms: _40  and  _41
REMARK   19  A    between atoms: _40  and  _43
REMARK   20  A    between atoms: _43  and  _44
REMARK   21  A    between atoms: _44  and  _45
REMARK   22  A    between atoms: _45  and  _46
REMARK   23  A    between atoms: _55  and  _57
REMARK   24  A    between atoms: _57  and  _58
REMARK   25  A    between atoms: _57  and  _60
REMARK   26  A    between atoms: _60  and  _61
REMARK   27  A    between atoms: _66  and  _68
REMARK   28  A    between atoms: _68  and  _69
REMARK   29  A    between atoms: _68  and  _71
REMARK   30  A    between atoms: _71  and  _72
REMARK   31  A    between atoms: _77  and  _78
REMARK   32  A    between atoms: _80  and  _82
REMARK   33  A    between atoms: _82  and  _83
REMARK   34  A    between atoms: _82  and  _85
REMARK   35  A    between atoms: _85  and  _86
REMARK   36  A    between atoms: _91  and  _93
REMARK   37  A    between atoms: _93  and  _94
REMARK   38  A    between atoms: _93  and  _96
REMARK   39  A    between atoms: _96  and  _97
REMARK   40  A    between atoms: _97  and  _98
REMARK   41  A    between atoms: _103  and  _105
REMARK   42  A    between atoms: _105  and  _106
REMARK   43  A    between atoms: _105  and  _108
REMARK   44  A    between atoms: _108  and  _109
REMARK   45  A    between atoms: _109  and  _110
REMARK   46  A    between atoms: _110  and  _111
REMARK   47  A    between atoms: _120  and  _122
REMARK   48  A    between atoms: _122  and  _123
REMARK   49  A    between atoms: _122  and  _125
REMARK   50  A    between atoms: _125  and  _126
REMARK   51  A    between atoms: _129  and  _131
REMARK   52  A    between atoms: _131  and  _132
REMARK   53  A    between atoms: _131  and  _134
REMARK   54  A    between atoms: _134  and  _135
REMARK   55  A    between atoms: _138  and  _140
REMARK   56  A    between atoms: _140  and  _141
REMARK   57  A    between atoms: _140  and  _143
REMARK   58  A    between atoms: _143  and  _144
REMARK   59  A    between atoms: _147  and  _149
REMARK   60  A    between atoms: _149  and  _150
REMARK   61  A    between atoms: _149  and  _152
REMARK   62  A    between atoms: _152  and  _153
REMARK   63  A    between atoms: _156  and  _158
REMARK   64  A    between atoms: _158  and  _159
REMARK   65  A    between atoms: _158  and  _161
REMARK   66  A    between atoms: _161  and  _162
REMARK   67  A    between atoms: _162  and  _163
REMARK   68  A    between atoms: _168  and  _170
REMARK   69  A    between atoms: _170  and  _171
REMARK   70  A    between atoms: _170  and  _173
REMARK   71  A    between atoms: _173  and  _174
REMARK   72  A    between atoms: _177  and  _179
REMARK   73  A    between atoms: _179  and  _180
REMARK   74  A    between atoms: _179  and  _182
REMARK   75  A    between atoms: _182  and  _183
REMARK   76  A    between atoms: _188  and  _190
REMARK   77  A    between atoms: _190  and  _191
REMARK   78  A    between atoms: _190  and  _193
REMARK   79  A    between atoms: _196  and  _198
REMARK   80  A    between atoms: _198  and  _199
REMARK   81  A    between atoms: _198  and  _201
REMARK   82  A    between atoms: _201  and  _202
REMARK   83  A    between atoms: _205  and  _207
REMARK   84  A    between atoms: _207  and  _208
REMARK   85  A    between atoms: _207  and  _210
REMARK   86  A    between atoms: _210  and  _211
REMARK   87  A    between atoms: _214  and  _216
REMARK   88  A    between atoms: _216  and  _217
REMARK   89  A    between atoms: _216  and  _219
REMARK   90  A    between atoms: _219  and  _220
REMARK   91  A    between atoms: _226  and  _228
REMARK   92  A    between atoms: _228  and  _229
REMARK   93  A    between atoms: _228  and  _231
REMARK   94  A    between atoms: _231  and  _232
REMARK   95  A    between atoms: _237  and  _239
REMARK   96  A    between atoms: _239  and  _240
REMARK   97  A    between atoms: _239  and  _242
REMARK   98  A    between atoms: _242  and  _243
REMARK   99  A    between atoms: _253  and  _255
REMARK  100  A    between atoms: _255  and  _256
REMARK  101  A    between atoms: _255  and  _258
REMARK  102  A    between atoms: _258  and  _259
REMARK  103  A    between atoms: _264  and  _265
REMARK  104  A    between atoms: _267  and  _269
REMARK  105  A    between atoms: _269  and  _270
REMARK  106  A    between atoms: _273  and  _275
REMARK  107  A    between atoms: _275  and  _276
REMARK  108  A    between atoms: _275  and  _278
REMARK  109  A    between atoms: _278  and  _279
REMARK  110  A    between atoms: _285  and  _287
REMARK  111  A    between atoms: _287  and  _288
REMARK  112  A    between atoms: _287  and  _290
REMARK  113  A    between atoms: _290  and  _291
REMARK  114  A    between atoms: _296  and  _298
REMARK  115  A    between atoms: _298  and  _299
REMARK  116  A    between atoms: _298  and  _301
REMARK  117  A    between atoms: _301  and  _302
REMARK  118  A    between atoms: _307  and  _309
REMARK  119  A    between atoms: _309  and  _310
REMARK  120  A    between atoms: _309  and  _312
REMARK  121  A    between atoms: _312  and  _313
REMARK  122  A    between atoms: _313  and  _314
REMARK  123  A    between atoms: _319  and  _321
REMARK  124  A    between atoms: _321  and  _322
REMARK  125  A    between atoms: _321  and  _324
REMARK  126  A    between atoms: _324  and  _325
REMARK  127  A    between atoms: _330  and  _331
REMARK  128  A    between atoms: _333  and  _335
REMARK  129  A    between atoms: _335  and  _336
REMARK  130  A    between atoms: _335  and  _338
REMARK  131  A    between atoms: _338  and  _339
REMARK  132  A    between atoms: _342  and  _344
REMARK  133  A    between atoms: _344  and  _345
REMARK  134  A    between atoms: _348  and  _350
REMARK  135  A    between atoms: _350  and  _351
REMARK  136  A    between atoms: _350  and  _353
REMARK  137  A    between atoms: _353  and  _354
REMARK  138  A    between atoms: _356  and  _358
REMARK  139  A    between atoms: _358  and  _359
REMARK  140  A    between atoms: _358  and  _361
REMARK  141  A    between atoms: _361  and  _362
REMARK  142  A    between atoms: _367  and  _368
REMARK  143  A    between atoms: _370  and  _372
REMARK  144  A    between atoms: _372  and  _373
REMARK  145  A    between atoms: _372  and  _375
REMARK  146  A    between atoms: _375  and  _376
REMARK  147  A    between atoms: _376  and  _377
REMARK  148  A    between atoms: _379  and  _381
REMARK  149  A    between atoms: _381  and  _382
REMARK  150  A    between atoms: _381  and  _384
REMARK  151  A    between atoms: _384  and  _385
REMARK  152  A    between atoms: _385  and  _386
REMARK  153  A    between atoms: _386  and  _387
REMARK  154  A    between atoms: _387  and  _388
REMARK  155  A    between atoms: _392  and  _394
REMARK  156  A    between atoms: _394  and  _395
REMARK  157  A    between atoms: _394  and  _397
REMARK  158  A    between atoms: _397  and  _398
REMARK  159  A    between atoms: _400  and  _402
REMARK  160  A    between atoms: _402  and  _403
REMARK  161  A    between atoms: _402  and  _405
REMARK  162  A    between atoms: _405  and  _406
REMARK  163  A    between atoms: _411  and  _412
REMARK  164  A    between atoms: _414  and  _416
REMARK  165  A    between atoms: _416  and  _417
REMARK  166  A    between atoms: _416  and  _419
REMARK  167  A    between atoms: _419  and  _420
REMARK  168  A    between atoms: _422  and  _424
REMARK  169  A    between atoms: _424  and  _425
REMARK  170  A    between atoms: _428  and  _430
REMARK  171  A    between atoms: _430  and  _431
REMARK  172  A    between atoms: _430  and  _433
REMARK  173  A    between atoms: _433  and  _434
REMARK  174  A    between atoms: _437  and  _439
REMARK  175  A    between atoms: _439  and  _440
REMARK  176  A    between atoms: _439  and  _442
REMARK  177  A    between atoms: _442  and  _443
REMARK  178  A    between atoms: _453  and  _455
REMARK  179  A    between atoms: _455  and  _456
REMARK  180  A    between atoms: _455  and  _458
REMARK  181  A    between atoms: _458  and  _459
REMARK  182  A    between atoms: _459  and  _460
REMARK  183  A    between atoms: _465  and  _467
REMARK  184  A    between atoms: _467  and  _468
REMARK  185  A    between atoms: _467  and  _470
REMARK  186  A    between atoms: _473  and  _475
REMARK  187  A    between atoms: _475  and  _476
REMARK  188  A    between atoms: _475  and  _478
REMARK  189  A    between atoms: _478  and  _479
REMARK  190  A    between atoms: _482  and  _484
REMARK  191  A    between atoms: _484  and  _485
REMARK  192  A    between atoms: _488  and  _490
REMARK  193  A    between atoms: _490  and  _491
REMARK  194  A    between atoms: _490  and  _493
REMARK  195  A    between atoms: _496  and  _498
REMARK  196  A    between atoms: _498  and  _499
REMARK  197  A    between atoms: _498  and  _501
REMARK  198  A    between atoms: _501  and  _502
REMARK  199  A    between atoms: _508  and  _510
REMARK  200  A    between atoms: _510  and  _511
REMARK  201  A    between atoms: _510  and  _513
REMARK  202  A    between atoms: _513  and  _514
REMARK  203  A    between atoms: _516  and  _518
REMARK  204  A    between atoms: _518  and  _519
REMARK  205  A    between atoms: _518  and  _521
REMARK  206  A    between atoms: _521  and  _522
REMARK  207  A    between atoms: _527  and  _529
REMARK  208  A    between atoms: _529  and  _530
REMARK  209  A    between atoms: _529  and  _532
REMARK  210  A    between atoms: _532  and  _533
REMARK  211  A    between atoms: _543  and  _545
REMARK  212  A    between atoms: _545  and  _546
REMARK  213  A    between atoms: _545  and  _548
REMARK  214  A    between atoms: _548  and  _549
REMARK  215  A    between atoms: _552  and  _554
REMARK  216  A    between atoms: _554  and  _555
REMARK  217  A    between atoms: _554  and  _557
REMARK  218  A    between atoms: _557  and  _558
REMARK  219  A    between atoms: _563  and  _564
REMARK  220  A    between atoms: _566  and  _568
REMARK  221  A    between atoms: _568  and  _569
REMARK  222  A    between atoms: _568  and  _571
REMARK  223  A    between atoms: _571  and  _572
REMARK  224  A    between atoms: _575  and  _577
REMARK  225  A    between atoms: _577  and  _578
REMARK  226  A    between atoms: _577  and  _580
REMARK  227  A    between atoms: _580  and  _581
REMARK  228  A    between atoms: _581  and  _582
REMARK  229  A    between atoms: _585  and  _587
REMARK  230  A    between atoms: _587  and  _588
REMARK  231  A    between atoms: _587  and  _590
REMARK  232  A    between atoms: _590  and  _591
REMARK  233  A    between atoms: _596  and  _598
REMARK  234  A    between atoms: _598  and  _599
REMARK  235  A    between atoms: _601  and  _603
REMARK  236  A    between atoms: _603  and  _604
REMARK  237  A    between atoms: _603  and  _606
REMARK  238  A    between atoms: _606  and  _607
REMARK  239  A    between atoms: _607  and  _608
REMARK  240  A    between atoms: _610  and  _612
REMARK  241  A    between atoms: _612  and  _613
REMARK  242  A    between atoms: _612  and  _615
REMARK  243  A    between atoms: _615  and  _616
REMARK  244  A    between atoms: _619  and  _621
REMARK  245  A    between atoms: _621  and  _622
REMARK  246  A    between atoms: _621  and  _624
REMARK  247  A    between atoms: _624  and  _625
REMARK  248  A    between atoms: _635  and  _637
REMARK  249  A    between atoms: _637  and  _638
REMARK  250  A    between atoms: _637  and  _640
REMARK  251  A    between atoms: _640  and  _641
REMARK  252  A    between atoms: _643  and  _645
REMARK  253  A    between atoms: _645  and  _646
REMARK  254  A    between atoms: _645  and  _648
REMARK  255  A    between atoms: _648  and  _649
REMARK  256  A    between atoms: _654  and  _656
REMARK  257  A    between atoms: _656  and  _657
REMARK  258  A    between atoms: _656  and  _659
REMARK  259  A    between atoms: _659  and  _660
REMARK  260  A    between atoms: _666  and  _668
REMARK  261  A    between atoms: _668  and  _669
REMARK  262  A    between atoms: _668  and  _671
REMARK  263  A    between atoms: _671  and  _672
REMARK  264  A    between atoms: _672  and  _673
REMARK  265  A    between atoms: _676  and  _678
REMARK  266  A    between atoms: _678  and  _679
REMARK  267  A    between atoms: _678  and  _681
REMARK  268  A    between atoms: _681  and  _682
REMARK  269  A    between atoms: _692  and  _694
REMARK  270  A    between atoms: _694  and  _695
REMARK  271  A    between atoms: _694  and  _697
REMARK  272  A    between atoms: _697  and  _698
REMARK  273  A    between atoms: _701  and  _703
REMARK  274  A    between atoms: _703  and  _704
REMARK  275  A    between atoms: _703  and  _706
REMARK  276  A    between atoms: _706  and  _707
REMARK  277  A    between atoms: _709  and  _711
REMARK  278  A    between atoms: _711  and  _712
REMARK  279  A    between atoms: _711  and  _714
REMARK  280  A    between atoms: _714  and  _715
REMARK  281  A    between atoms: _717  and  _719
REMARK  282  A    between atoms: _719  and  _720
REMARK  283  A    between atoms: _719  and  _722
REMARK  284  A    between atoms: _722  and  _723
REMARK                            x       y       z     vdW  Elec       q    Type
REMARK                         _______ _______ _______ _____ _____    ______ ____
ROOT
ATOM      1  O   HOH     1     -13.089   0.507  57.040  0.00  0.00    +0.000 OA
ENDROOT
TORSDOF 0
REMARK  Name = ../refined-set-2016/4qlk/4qlk_pocket.pdb
REMARK  284 active torsions:
REMARK  status: ('A' for Active; 'I' for Inactive)
REMARK    1  A    between atoms: _1  and  _3
REMARK    2  A    between atoms: _3  and  _4
REMARK    3  A    between atoms: _3  and  _6
REMARK    4  A    between atoms: _9  and  _11
REMARK    5  A    between atoms: _11  and  _12
REMARK    6  A    between atoms: _11  and  _14
REMARK    7  A    between atoms: _14  and  _15
REMARK    8  A    between atoms: _18  and  _20
REMARK    9  A    between atoms: _20  and  _21
REMARK   10  A    between atoms: _20  and  _23
REMARK   11  A    between atoms: _23  and  _24
REMARK   12  A    between atoms: _26  and  _28
REMARK   13  A    between atoms: _28  and  _29
REMARK   14  A    between atoms: _28  and  _31
REMARK   15  A    between atoms: _31  and  _32
REMARK   16  A    between atoms: _32  and  _33
REMARK   17  A    between atoms: _38  and  _40
REMARK   18  A    between atoms: _40  and  _41
REMARK   19  A    between atoms: _40  and  _43
REMARK   20  A    between atoms: _43  and  _44
REMARK   21  A    between atoms: _44  and  _45
REMARK   22  A    between atoms: _45  and  _46
REMARK   23  A    between atoms: _55  and  _57
REMARK   24  A    between atoms: _57  and  _58
REMARK   25  A    between atoms: _57  and  _60
REMARK   26  A    between atoms: _60  and  _61
REMARK   27  A    between atoms: _66  and  _68
REMARK   28  A    between atoms: _68  and  _69
REMARK   29  A    between atoms: _68  and  _71
REMARK   30  A    between atoms: _71  and  _72
REMARK   31  A    between atoms: _77  and  _78
REMARK   32  A    between atoms: _80  and  _82
REMARK   33  A    between atoms: _82  and  _83
REMARK   34  A    between atoms: _82  and  _85
REMARK   35  A    between atoms: _85  and  _86
REMARK   36  A    between atoms: _91  and  _93
REMARK   37  A    between atoms: _93  and  _94
REMARK   38  A    between atoms: _93  and  _96
REMARK   39  A    between atoms: _96  and  _97
REMARK   40  A    between atoms: _97  and  _98
REMARK   41  A    between atoms: _103  and  _105
REMARK   42  A    between atoms: _105  and  _106
REMARK   43  A    between atoms: _105  and  _108
REMARK   44  A    between atoms: _108  and  _109
REMARK   45  A    between atoms: _109  and  _110
REMARK   46  A    between atoms: _110  and  _111
REMARK   47  A    between atoms: _120  and  _122
REMARK   48  A    between atoms: _122  and  _123
REMARK   49  A    between atoms: _122  and  _125
REMARK   50  A    between atoms: _125  and  _126
REMARK   51  A    between atoms: _129  and  _131
REMARK   52  A    between atoms: _131  and  _132
REMARK   53  A    between atoms: _131  and  _134
REMARK   54  A    between atoms: _134  and  _135
REMARK   55  A    between atoms: _138  and  _140
REMARK   56  A    between atoms: _140  and  _141
REMARK   57  A    between atoms: _140  and  _143
REMARK   58  A    between atoms: _143  and  _144
REMARK   59  A    between atoms: _147  and  _149
REMARK   60  A    between atoms: _149  and  _150
REMARK   61  A    between atoms: _149  and  _152
REMARK   62  A    between atoms: _152  and  _153
REMARK   63  A    between atoms: _156  and  _158
REMARK   64  A    between atoms: _158  and  _159
REMARK   65  A    between atoms: _158  and  _161
REMARK   66  A    between atoms: _161  and  _162
REMARK   67  A    between atoms: _162  and  _163
REMARK   68  A    between atoms: _168  and  _170
REMARK   69  A    between atoms: _170  and  _171
REMARK   70  A    between atoms: _170  and  _173
REMARK   71  A    between atoms: _173  and  _174
REMARK   72  A    between atoms: _177  and  _179
REMARK   73  A    between atoms: _179  and  _180
REMARK   74  A    between atoms: _179  and  _182
REMARK   75  A    between atoms: _182  and  _183
REMARK   76  A    between atoms: _188  and  _190
REMARK   77  A    between atoms: _190  and  _191
REMARK   78  A    between atoms: _190  and  _193
REMARK   79  A    between atoms: _196  and  _198
REMARK   80  A    between atoms: _198  and  _199
REMARK   81  A    between atoms: _198  and  _201
REMARK   82  A    between atoms: _201  and  _202
REMARK   83  A    between atoms: _205  and  _207
REMARK   84  A    between atoms: _207  and  _208
REMARK   85  A    between atoms: _207  and  _210
REMARK   86  A    between atoms: _210  and  _211
REMARK   87  A    between atoms: _214  and  _216
REMARK   88  A    between atoms: _216  and  _217
REMARK   89  A    between atoms: _216  and  _219
REMARK   90  A    between atoms: _219  and  _220
REMARK   91  A    between atoms: _226  and  _228
REMARK   92  A    between atoms: _228  and  _229
REMARK   93  A    between atoms: _228  and  _231
REMARK   94  A    between atoms: _231  and  _232
REMARK   95  A    between atoms: _237  and  _239
REMARK   96  A    between atoms: _239  and  _240
REMARK   97  A    between atoms: _239  and  _242
REMARK   98  A    between atoms: _242  and  _243
REMARK   99  A    between atoms: _253  and  _255
REMARK  100  A    between atoms: _255  and  _256
REMARK  101  A    between atoms: _255  and  _258
REMARK  102  A    between atoms: _258  and  _259
REMARK  103  A    between atoms: _264  and  _265
REMARK  104  A    between atoms: _267  and  _269
REMARK  105  A    between atoms: _269  and  _270
REMARK  106  A    between atoms: _273  and  _275
REMARK  107  A    between atoms: _275  and  _276
REMARK  108  A    between atoms: _275  and  _278
REMARK  109  A    between atoms: _278  and  _279
REMARK  110  A    between atoms: _285  and  _287
REMARK  111  A    between atoms: _287  and  _288
REMARK  112  A    between atoms: _287  and  _290
REMARK  113  A    between atoms: _290  and  _291
REMARK  114  A    between atoms: _296  and  _298
REMARK  115  A    between atoms: _298  and  _299
REMARK  116  A    between atoms: _298  and  _301
REMARK  117  A    between atoms: _301  and  _302
REMARK  118  A    between atoms: _307  and  _309
REMARK  119  A    between atoms: _309  and  _310
REMARK  120  A    between atoms: _309  and  _312
REMARK  121  A    between atoms: _312  and  _313
REMARK  122  A    between atoms: _313  and  _314
REMARK  123  A    between atoms: _319  and  _321
REMARK  124  A    between atoms: _321  and  _322
REMARK  125  A    between atoms: _321  and  _324
REMARK  126  A    between atoms: _324  and  _325
REMARK  127  A    between atoms: _330  and  _331
REMARK  128  A    between atoms: _333  and  _335
REMARK  129  A    between atoms: _335  and  _336
REMARK  130  A    between atoms: _335  and  _338
REMARK  131  A    between atoms: _338  and  _339
REMARK  132  A    between atoms: _342  and  _344
REMARK  133  A    between atoms: _344  and  _345
REMARK  134  A    between atoms: _348  and  _350
REMARK  135  A    between atoms: _350  and  _351
REMARK  136  A    between atoms: _350  and  _353
REMARK  137  A    between atoms: _353  and  _354
REMARK  138  A    between atoms: _356  and  _358
REMARK  139  A    between atoms: _358  and  _359
REMARK  140  A    between atoms: _358  and  _361
REMARK  141  A    between atoms: _361  and  _362
REMARK  142  A    between atoms: _367  and  _368
REMARK  143  A    between atoms: _370  and  _372
REMARK  144  A    between atoms: _372  and  _373
REMARK  145  A    between atoms: _372  and  _375
REMARK  146  A    between atoms: _375  and  _376
REMARK  147  A    between atoms: _376  and  _377
REMARK  148  A    between atoms: _379  and  _381
REMARK  149  A    between atoms: _381  and  _382
REMARK  150  A    between atoms: _381  and  _384
REMARK  151  A    between atoms: _384  and  _385
REMARK  152  A    between atoms: _385  and  _386
REMARK  153  A    between atoms: _386  and  _387
REMARK  154  A    between atoms: _387  and  _388
REMARK  155  A    between atoms: _392  and  _394
REMARK  156  A    between atoms: _394  and  _395
REMARK  157  A    between atoms: _394  and  _397
REMARK  158  A    between atoms: _397  and  _398
REMARK  159  A    between atoms: _400  and  _402
REMARK  160  A    between atoms: _402  and  _403
REMARK  161  A    between atoms: _402  and  _405
REMARK  162  A    between atoms: _405  and  _406
REMARK  163  A    between atoms: _411  and  _412
REMARK  164  A    between atoms: _414  and  _416
REMARK  165  A    between atoms: _416  and  _417
REMARK  166  A    between atoms: _416  and  _419
REMARK  167  A    between atoms: _419  and  _420
REMARK  168  A    between atoms: _422  and  _424
REMARK  169  A    between atoms: _424  and  _425
REMARK  170  A    between atoms: _428  and  _430
REMARK  171  A    between atoms: _430  and  _431
REMARK  172  A    between atoms: _430  and  _433
REMARK  173  A    between atoms: _433  and  _434
REMARK  174  A    between atoms: _437  and  _439
REMARK  175  A    between atoms: _439  and  _440
REMARK  176  A    between atoms: _439  and  _442
REMARK  177  A    between atoms: _442  and  _443
REMARK  178  A    between atoms: _453  and  _455
REMARK  179  A    between atoms: _455  and  _456
REMARK  180  A    between atoms: _455  and  _458
REMARK  181  A    between atoms: _458  and  _459
REMARK  182  A    between atoms: _459  and  _460
REMARK  183  A    between atoms: _465  and  _467
REMARK  184  A    between atoms: _467  and  _468
REMARK  185  A    between atoms: _467  and  _470
REMARK  186  A    between atoms: _473  and  _475
REMARK  187  A    between atoms: _475  and  _476
REMARK  188  A    between atoms: _475  and  _478
REMARK  189  A    between atoms: _478  and  _479
REMARK  190  A    between atoms: _482  and  _484
REMARK  191  A    between atoms: _484  and  _485
REMARK  192  A    between atoms: _488  and  _490
REMARK  193  A    between atoms: _490  and  _491
REMARK  194  A    between atoms: _490  and  _493
REMARK  195  A    between atoms: _496  and  _498
REMARK  196  A    between atoms: _498  and  _499
REMARK  197  A    between atoms: _498  and  _501
REMARK  198  A    between atoms: _501  and  _502
REMARK  199  A    between atoms: _508  and  _510
REMARK  200  A    between atoms: _510  and  _511
REMARK  201  A    between atoms: _510  and  _513
REMARK  202  A    between atoms: _513  and  _514
REMARK  203  A    between atoms: _516  and  _518
REMARK  204  A    between atoms: _518  and  _519
REMARK  205  A    between atoms: _518  and  _521
REMARK  206  A    between atoms: _521  and  _522
REMARK  207  A    between atoms: _527  and  _529
REMARK  208  A    between atoms: _529  and  _530
REMARK  209  A    between atoms: _529  and  _532
REMARK  210  A    between atoms: _532  and  _533
REMARK  211  A    between atoms: _543  and  _545
REMARK  212  A    between atoms: _545  and  _546
REMARK  213  A    between atoms: _545  and  _548
REMARK  214  A    between atoms: _548  and  _549
REMARK  215  A    between atoms: _552  and  _554
REMARK  216  A    between atoms: _554  and  _555
REMARK  217  A    between atoms: _554  and  _557
REMARK  218  A    between atoms: _557  and  _558
REMARK  219  A    between atoms: _563  and  _564
REMARK  220  A    between atoms: _566  and  _568
REMARK  221  A    between atoms: _568  and  _569
REMARK  222  A    between atoms: _568  and  _571
REMARK  223  A    between atoms: _571  and  _572
REMARK  224  A    between atoms: _575  and  _577
REMARK  225  A    between atoms: _577  and  _578
REMARK  226  A    between atoms: _577  and  _580
REMARK  227  A    between atoms: _580  and  _581
REMARK  228  A    between atoms: _581  and  _582
REMARK  229  A    between atoms: _585  and  _587
REMARK  230  A    between atoms: _587  and  _588
REMARK  231  A    between atoms: _587  and  _590
REMARK  232  A    between atoms: _590  and  _591
REMARK  233  A    between atoms: _596  and  _598
REMARK  234  A    between atoms: _598  and  _599
REMARK  235  A    between atoms: _601  and  _603
REMARK  236  A    between atoms: _603  and  _604
REMARK  237  A    between atoms: _603  and  _606
REMARK  238  A    between atoms: _606  and  _607
REMARK  239  A    between atoms: _607  and  _608
REMARK  240  A    between atoms: _610  and  _612
REMARK  241  A    between atoms: _612  and  _613
REMARK  242  A    between atoms: _612  and  _615
REMARK  243  A    between atoms: _615  and  _616
REMARK  244  A    between atoms: _619  and  _621
REMARK  245  A    between atoms: _621  and  _622
REMARK  246  A    between atoms: _621  and  _624
REMARK  247  A    between atoms: _624  and  _625
REMARK  248  A    between atoms: _635  and  _637
REMARK  249  A    between atoms: _637  and  _638
REMARK  250  A    between atoms: _637  and  _640
REMARK  251  A    between atoms: _640  and  _641
REMARK  252  A    between atoms: _643  and  _645
REMARK  253  A    between atoms: _645  and  _646
REMARK  254  A    between atoms: _645  and  _648
REMARK  255  A    between atoms: _648  and  _649
REMARK  256  A    between atoms: _654  and  _656
REMARK  257  A    between atoms: _656  and  _657
REMARK  258  A    between atoms: _656  and  _659
REMARK  259  A    between atoms: _659  and  _660
REMARK  260  A    between atoms: _666  and  _668
REMARK  261  A    between atoms: _668  and  _669
REMARK  262  A    between atoms: _668  and  _671
REMARK  263  A    between atoms: _671  and  _672
REMARK  264  A    between atoms: _672  and  _673
REMARK  265  A    between atoms: _676  and  _678
REMARK  266  A    between atoms: _678  and  _679
REMARK  267  A    between atoms: _678  and  _681
REMARK  268  A    between atoms: _681  and  _682
REMARK  269  A    between atoms: _692  and  _694
REMARK  270  A    between atoms: _694  and  _695
REMARK  271  A    between atoms: _694  and  _697
REMARK  272  A    between atoms: _697  and  _698
REMARK  273  A    between atoms: _701  and  _703
REMARK  274  A    between atoms: _703  and  _704
REMARK  275  A    between atoms: _703  and  _706
REMARK  276  A    between atoms: _706  and  _707
REMARK  277  A    between atoms: _709  and  _711
REMARK  278  A    between atoms: _711  and  _712
REMARK  279  A    between atoms: _711  and  _714
REMARK  280  A    between atoms: _714  and  _715
REMARK  281  A    between atoms: _717  and  _719
REMARK  282  A    between atoms: _719  and  _720
REMARK  283  A    between atoms: _719  and  _722
REMARK  284  A    between atoms: _722  and  _723
REMARK                            x       y       z     vdW  Elec       q    Type
REMARK                         _______ _______ _______ _____ _____    ______ ____
ROOT
ATOM      1  O   HOH     1      -6.030   1.406  44.173  0.00  0.00    +0.000 OA
ENDROOT
TORSDOF 0
REMARK  Name = ../refined-set-2016/4qlk/4qlk_pocket.pdb
REMARK  284 active torsions:
REMARK  status: ('A' for Active; 'I' for Inactive)
REMARK    1  A    between atoms: _1  and  _3
REMARK    2  A    between atoms: _3  and  _4
REMARK    3  A    between atoms: _3  and  _6
REMARK    4  A    between atoms: _9  and  _11
REMARK    5  A    between atoms: _11  and  _12
REMARK    6  A    between atoms: _11  and  _14
REMARK    7  A    between atoms: _14  and  _15
REMARK    8  A    between atoms: _18  and  _20
REMARK    9  A    between atoms: _20  and  _21
REMARK   10  A    between atoms: _20  and  _23
REMARK   11  A    between atoms: _23  and  _24
REMARK   12  A    between atoms: _26  and  _28
REMARK   13  A    between atoms: _28  and  _29
REMARK   14  A    between atoms: _28  and  _31
REMARK   15  A    between atoms: _31  and  _32
REMARK   16  A    between atoms: _32  and  _33
REMARK   17  A    between atoms: _38  and  _40
REMARK   18  A    between atoms: _40  and  _41
REMARK   19  A    between atoms: _40  and  _43
REMARK   20  A    between atoms: _43  and  _44
REMARK   21  A    between atoms: _44  and  _45
REMARK   22  A    between atoms: _45  and  _46
REMARK   23  A    between atoms: _55  and  _57
REMARK   24  A    between atoms: _57  and  _58
REMARK   25  A    between atoms: _57  and  _60
REMARK   26  A    between atoms: _60  and  _61
REMARK   27  A    between atoms: _66  and  _68
REMARK   28  A    between atoms: _68  and  _69
REMARK   29  A    between atoms: _68  and  _71
REMARK   30  A    between atoms: _71  and  _72
REMARK   31  A    between atoms: _77  and  _78
REMARK   32  A    between atoms: _80  and  _82
REMARK   33  A    between atoms: _82  and  _83
REMARK   34  A    between atoms: _82  and  _85
REMARK   35  A    between atoms: _85  and  _86
REMARK   36  A    between atoms: _91  and  _93
REMARK   37  A    between atoms: _93  and  _94
REMARK   38  A    between atoms: _93  and  _96
REMARK   39  A    between atoms: _96  and  _97
REMARK   40  A    between atoms: _97  and  _98
REMARK   41  A    between atoms: _103  and  _105
REMARK   42  A    between atoms: _105  and  _106
REMARK   43  A    between atoms: _105  and  _108
REMARK   44  A    between atoms: _108  and  _109
REMARK   45  A    between atoms: _109  and  _110
REMARK   46  A    between atoms: _110  and  _111
REMARK   47  A    between atoms: _120  and  _122
REMARK   48  A    between atoms: _122  and  _123
REMARK   49  A    between atoms: _122  and  _125
REMARK   50  A    between atoms: _125  and  _126
REMARK   51  A    between atoms: _129  and  _131
REMARK   52  A    between atoms: _131  and  _132
REMARK   53  A    between atoms: _131  and  _134
REMARK   54  A    between atoms: _134  and  _135
REMARK   55  A    between atoms: _138  and  _140
REMARK   56  A    between atoms: _140  and  _141
REMARK   57  A    between atoms: _140  and  _143
REMARK   58  A    between atoms: _143  and  _144
REMARK   59  A    between atoms: _147  and  _149
REMARK   60  A    between atoms: _149  and  _150
REMARK   61  A    between atoms: _149  and  _152
REMARK   62  A    between atoms: _152  and  _153
REMARK   63  A    between atoms: _156  and  _158
REMARK   64  A    between atoms: _158  and  _159
REMARK   65  A    between atoms: _158  and  _161
REMARK   66  A    between atoms: _161  and  _162
REMARK   67  A    between atoms: _162  and  _163
REMARK   68  A    between atoms: _168  and  _170
REMARK   69  A    between atoms: _170  and  _171
REMARK   70  A    between atoms: _170  and  _173
REMARK   71  A    between atoms: _173  and  _174
REMARK   72  A    between atoms: _177  and  _179
REMARK   73  A    between atoms: _179  and  _180
REMARK   74  A    between atoms: _179  and  _182
REMARK   75  A    between atoms: _182  and  _183
REMARK   76  A    between atoms: _188  and  _190
REMARK   77  A    between atoms: _190  and  _191
REMARK   78  A    between atoms: _190  and  _193
REMARK   79  A    between atoms: _196  and  _198
REMARK   80  A    between atoms: _198  and  _199
REMARK   81  A    between atoms: _198  and  _201
REMARK   82  A    between atoms: _201  and  _202
REMARK   83  A    between atoms: _205  and  _207
REMARK   84  A    between atoms: _207  and  _208
REMARK   85  A    between atoms: _207  and  _210
REMARK   86  A    between atoms: _210  and  _211
REMARK   87  A    between atoms: _214  and  _216
REMARK   88  A    between atoms: _216  and  _217
REMARK   89  A    between atoms: _216  and  _219
REMARK   90  A    between atoms: _219  and  _220
REMARK   91  A    between atoms: _226  and  _228
REMARK   92  A    between atoms: _228  and  _229
REMARK   93  A    between atoms: _228  and  _231
REMARK   94  A    between atoms: _231  and  _232
REMARK   95  A    between atoms: _237  and  _239
REMARK   96  A    between atoms: _239  and  _240
REMARK   97  A    between atoms: _239  and  _242
REMARK   98  A    between atoms: _242  and  _243
REMARK   99  A    between atoms: _253  and  _255
REMARK  100  A    between atoms: _255  and  _256
REMARK  101  A    between atoms: _255  and  _258
REMARK  102  A    between atoms: _258  and  _259
REMARK  103  A    between atoms: _264  and  _265
REMARK  104  A    between atoms: _267  and  _269
REMARK  105  A    between atoms: _269  and  _270
REMARK  106  A    between atoms: _273  and  _275
REMARK  107  A    between atoms: _275  and  _276
REMARK  108  A    between atoms: _275  and  _278
REMARK  109  A    between atoms: _278  and  _279
REMARK  110  A    between atoms: _285  and  _287
REMARK  111  A    between atoms: _287  and  _288
REMARK  112  A    between atoms: _287  and  _290
REMARK  113  A    between atoms: _290  and  _291
REMARK  114  A    between atoms: _296  and  _298
REMARK  115  A    between atoms: _298  and  _299
REMARK  116  A    between atoms: _298  and  _301
REMARK  117  A    between atoms: _301  and  _302
REMARK  118  A    between atoms: _307  and  _309
REMARK  119  A    between atoms: _309  and  _310
REMARK  120  A    between atoms: _309  and  _312
REMARK  121  A    between atoms: _312  and  _313
REMARK  122  A    between atoms: _313  and  _314
REMARK  123  A    between atoms: _319  and  _321
REMARK  124  A    between atoms: _321  and  _322
REMARK  125  A    between atoms: _321  and  _324
REMARK  126  A    between atoms: _324  and  _325
REMARK  127  A    between atoms: _330  and  _331
REMARK  128  A    between atoms: _333  and  _335
REMARK  129  A    between atoms: _335  and  _336
REMARK  130  A    between atoms: _335  and  _338
REMARK  131  A    between atoms: _338  and  _339
REMARK  132  A    between atoms: _342  and  _344
REMARK  133  A    between atoms: _344  and  _345
REMARK  134  A    between atoms: _348  and  _350
REMARK  135  A    between atoms: _350  and  _351
REMARK  136  A    between atoms: _350  and  _353
REMARK  137  A    between atoms: _353  and  _354
REMARK  138  A    between atoms: _356  and  _358
REMARK  139  A    between atoms: _358  and  _359
REMARK  140  A    between atoms: _358  and  _361
REMARK  141  A    between atoms: _361  and  _362
REMARK  142  A    between atoms: _367  and  _368
REMARK  143  A    between atoms: _370  and  _372
REMARK  144  A    between atoms: _372  and  _373
REMARK  145  A    between atoms: _372  and  _375
REMARK  146  A    between atoms: _375  and  _376
REMARK  147  A    between atoms: _376  and  _377
REMARK  148  A    between atoms: _379  and  _381
REMARK  149  A    between atoms: _381  and  _382
REMARK  150  A    between atoms: _381  and  _384
REMARK  151  A    between atoms: _384  and  _385
REMARK  152  A    between atoms: _385  and  _386
REMARK  153  A    between atoms: _386  and  _387
REMARK  154  A    between atoms: _387  and  _388
REMARK  155  A    between atoms: _392  and  _394
REMARK  156  A    between atoms: _394  and  _395
REMARK  157  A    between atoms: _394  and  _397
REMARK  158  A    between atoms: _397  and  _398
REMARK  159  A    between atoms: _400  and  _402
REMARK  160  A    between atoms: _402  and  _403
REMARK  161  A    between atoms: _402  and  _405
REMARK  162  A    between atoms: _405  and  _406
REMARK  163  A    between atoms: _411  and  _412
REMARK  164  A    between atoms: _414  and  _416
REMARK  165  A    between atoms: _416  and  _417
REMARK  166  A    between atoms: _416  and  _419
REMARK  167  A    between atoms: _419  and  _420
REMARK  168  A    between atoms: _422  and  _424
REMARK  169  A    between atoms: _424  and  _425
REMARK  170  A    between atoms: _428  and  _430
REMARK  171  A    between atoms: _430  and  _431
REMARK  172  A    between atoms: _430  and  _433
REMARK  173  A    between atoms: _433  and  _434
REMARK  174  A    between atoms: _437  and  _439
REMARK  175  A    between atoms: _439  and  _440
REMARK  176  A    between atoms: _439  and  _442
REMARK  177  A    between atoms: _442  and  _443
REMARK  178  A    between atoms: _453  and  _455
REMARK  179  A    between atoms: _455  and  _456
REMARK  180  A    between atoms: _455  and  _458
REMARK  181  A    between atoms: _458  and  _459
REMARK  182  A    between atoms: _459  and  _460
REMARK  183  A    between atoms: _465  and  _467
REMARK  184  A    between atoms: _467  and  _468
REMARK  185  A    between atoms: _467  and  _470
REMARK  186  A    between atoms: _473  and  _475
REMARK  187  A    between atoms: _475  and  _476
REMARK  188  A    between atoms: _475  and  _478
REMARK  189  A    between atoms: _478  and  _479
REMARK  190  A    between atoms: _482  and  _484
REMARK  191  A    between atoms: _484  and  _485
REMARK  192  A    between atoms: _488  and  _490
REMARK  193  A    between atoms: _490  and  _491
REMARK  194  A    between atoms: _490  and  _493
REMARK  195  A    between atoms: _496  and  _498
REMARK  196  A    between atoms: _498  and  _499
REMARK  197  A    between atoms: _498  and  _501
REMARK  198  A    between atoms: _501  and  _502
REMARK  199  A    between atoms: _508  and  _510
REMARK  200  A    between atoms: _510  and  _511
REMARK  201  A    between atoms: _510  and  _513
REMARK  202  A    between atoms: _513  and  _514
REMARK  203  A    between atoms: _516  and  _518
REMARK  204  A    between atoms: _518  and  _519
REMARK  205  A    between atoms: _518  and  _521
REMARK  206  A    between atoms: _521  and  _522
REMARK  207  A    between atoms: _527  and  _529
REMARK  208  A    between atoms: _529  and  _530
REMARK  209  A    between atoms: _529  and  _532
REMARK  210  A    between atoms: _532  and  _533
REMARK  211  A    between atoms: _543  and  _545
REMARK  212  A    between atoms: _545  and  _546
REMARK  213  A    between atoms: _545  and  _548
REMARK  214  A    between atoms: _548  and  _549
REMARK  215  A    between atoms: _552  and  _554
REMARK  216  A    between atoms: _554  and  _555
REMARK  217  A    between atoms: _554  and  _557
REMARK  218  A    between atoms: _557  and  _558
REMARK  219  A    between atoms: _563  and  _564
REMARK  220  A    between atoms: _566  and  _568
REMARK  221  A    between atoms: _568  and  _569
REMARK  222  A    between atoms: _568  and  _571
REMARK  223  A    between atoms: _571  and  _572
REMARK  224  A    between atoms: _575  and  _577
REMARK  225  A    between atoms: _577  and  _578
REMARK  226  A    between atoms: _577  and  _580
REMARK  227  A    between atoms: _580  and  _581
REMARK  228  A    between atoms: _581  and  _582
REMARK  229  A    between atoms: _585  and  _587
REMARK  230  A    between atoms: _587  and  _588
REMARK  231  A    between atoms: _587  and  _590
REMARK  232  A    between atoms: _590  and  _591
REMARK  233  A    between atoms: _596  and  _598
REMARK  234  A    between atoms: _598  and  _599
REMARK  235  A    between atoms: _601  and  _603
REMARK  236  A    between atoms: _603  and  _604
REMARK  237  A    between atoms: _603  and  _606
REMARK  238  A    between atoms: _606  and  _607
REMARK  239  A    between atoms: _607  and  _608
REMARK  240  A    between atoms: _610  and  _612
REMARK  241  A    between atoms: _612  and  _613
REMARK  242  A    between atoms: _612  and  _615
REMARK  243  A    between atoms: _615  and  _616
REMARK  244  A    between atoms: _619  and  _621
REMARK  245  A    between atoms: _621  and  _622
REMARK  246  A    between atoms: _621  and  _624
REMARK  247  A    between atoms: _624  and  _625
REMARK  248  A    between atoms: _635  and  _637
REMARK  249  A    between atoms: _637  and  _638
REMARK  250  A    between atoms: _637  and  _640
REMARK  251  A    between atoms: _640  and  _641
REMARK  252  A    between atoms: _643  and  _645
REMARK  253  A    between atoms: _645  and  _646
REMARK  254  A    between atoms: _645  and  _648
REMARK  255  A    between atoms: _648  and  _649
REMARK  256  A    between atoms: _654  and  _656
REMARK  257  A    between atoms: _656  and  _657
REMARK  258  A    between atoms: _656  and  _659
REMARK  259  A    between atoms: _659  and  _660
REMARK  260  A    between atoms: _666  and  _668
REMARK  261  A    between atoms: _668  and  _669
REMARK  262  A    between atoms: _668  and  _671
REMARK  263  A    between atoms: _671  and  _672
REMARK  264  A    between atoms: _672  and  _673
REMARK  265  A    between atoms: _676  and  _678
REMARK  266  A    between atoms: _678  and  _679
REMARK  267  A    between atoms: _678  and  _681
REMARK  268  A    between atoms: _681  and  _682
REMARK  269  A    between atoms: _692  and  _694
REMARK  270  A    between atoms: _694  and  _695
REMARK  271  A    between atoms: _694  and  _697
REMARK  272  A    between atoms: _697  and  _698
REMARK  273  A    between atoms: _701  and  _703
REMARK  274  A    between atoms: _703  and  _704
REMARK  275  A    between atoms: _703  and  _706
REMARK  276  A    between atoms: _706  and  _707
REMARK  277  A    between atoms: _709  and  _711
REMARK  278  A    between atoms: _711  and  _712
REMARK  279  A    between atoms: _711  and  _714
REMARK  280  A    between atoms: _714  and  _715
REMARK  281  A    between atoms: _717  and  _719
REMARK  282  A    between atoms: _719  and  _720
REMARK  283  A    between atoms: _719  and  _722
REMARK  284  A    between atoms: _722  and  _723
REMARK                            x       y       z     vdW  Elec       q    Type
REMARK                         _______ _______ _______ _____ _____    ______ ____
ROOT
ATOM      1  O   HOH     1      -8.840   3.691  46.032  0.00  0.00    +0.000 OA
ENDROOT
TORSDOF 0
REMARK  Name = ../refined-set-2016/4qlk/4qlk_pocket.pdb
REMARK  284 active torsions:
REMARK  status: ('A' for Active; 'I' for Inactive)
REMARK    1  A    between atoms: _1  and  _3
REMARK    2  A    between atoms: _3  and  _4
REMARK    3  A    between atoms: _3  and  _6
REMARK    4  A    between atoms: _9  and  _11
REMARK    5  A    between atoms: _11  and  _12
REMARK    6  A    between atoms: _11  and  _14
REMARK    7  A    between atoms: _14  and  _15
REMARK    8  A    between atoms: _18  and  _20
REMARK    9  A    between atoms: _20  and  _21
REMARK   10  A    between atoms: _20  and  _23
REMARK   11  A    between atoms: _23  and  _24
REMARK   12  A    between atoms: _26  and  _28
REMARK   13  A    between atoms: _28  and  _29
REMARK   14  A    between atoms: _28  and  _31
REMARK   15  A    between atoms: _31  and  _32
REMARK   16  A    between atoms: _32  and  _33
REMARK   17  A    between atoms: _38  and  _40
REMARK   18  A    between atoms: _40  and  _41
REMARK   19  A    between atoms: _40  and  _43
REMARK   20  A    between atoms: _43  and  _44
REMARK   21  A    between atoms: _44  and  _45
REMARK   22  A    between atoms: _45  and  _46
REMARK   23  A    between atoms: _55  and  _57
REMARK   24  A    between atoms: _57  and  _58
REMARK   25  A    between atoms: _57  and  _60
REMARK   26  A    between atoms: _60  and  _61
REMARK   27  A    between atoms: _66  and  _68
REMARK   28  A    between atoms: _68  and  _69
REMARK   29  A    between atoms: _68  and  _71
REMARK   30  A    between atoms: _71  and  _72
REMARK   31  A    between atoms: _77  and  _78
REMARK   32  A    between atoms: _80  and  _82
REMARK   33  A    between atoms: _82  and  _83
REMARK   34  A    between atoms: _82  and  _85
REMARK   35  A    between atoms: _85  and  _86
REMARK   36  A    between atoms: _91  and  _93
REMARK   37  A    between atoms: _93  and  _94
REMARK   38  A    between atoms: _93  and  _96
REMARK   39  A    between atoms: _96  and  _97
REMARK   40  A    between atoms: _97  and  _98
REMARK   41  A    between atoms: _103  and  _105
REMARK   42  A    between atoms: _105  and  _106
REMARK   43  A    between atoms: _105  and  _108
REMARK   44  A    between atoms: _108  and  _109
REMARK   45  A    between atoms: _109  and  _110
REMARK   46  A    between atoms: _110  and  _111
REMARK   47  A    between atoms: _120  and  _122
REMARK   48  A    between atoms: _122  and  _123
REMARK   49  A    between atoms: _122  and  _125
REMARK   50  A    between atoms: _125  and  _126
REMARK   51  A    between atoms: _129  and  _131
REMARK   52  A    between atoms: _131  and  _132
REMARK   53  A    between atoms: _131  and  _134
REMARK   54  A    between atoms: _134  and  _135
REMARK   55  A    between atoms: _138  and  _140
REMARK   56  A    between atoms: _140  and  _141
REMARK   57  A    between atoms: _140  and  _143
REMARK   58  A    between atoms: _143  and  _144
REMARK   59  A    between atoms: _147  and  _149
REMARK   60  A    between atoms: _149  and  _150
REMARK   61  A    between atoms: _149  and  _152
REMARK   62  A    between atoms: _152  and  _153
REMARK   63  A    between atoms: _156  and  _158
REMARK   64  A    between atoms: _158  and  _159
REMARK   65  A    between atoms: _158  and  _161
REMARK   66  A    between atoms: _161  and  _162
REMARK   67  A    between atoms: _162  and  _163
REMARK   68  A    between atoms: _168  and  _170
REMARK   69  A    between atoms: _170  and  _171
REMARK   70  A    between atoms: _170  and  _173
REMARK   71  A    between atoms: _173  and  _174
REMARK   72  A    between atoms: _177  and  _179
REMARK   73  A    between atoms: _179  and  _180
REMARK   74  A    between atoms: _179  and  _182
REMARK   75  A    between atoms: _182  and  _183
REMARK   76  A    between atoms: _188  and  _190
REMARK   77  A    between atoms: _190  and  _191
REMARK   78  A    between atoms: _190  and  _193
REMARK   79  A    between atoms: _196  and  _198
REMARK   80  A    between atoms: _198  and  _199
REMARK   81  A    between atoms: _198  and  _201
REMARK   82  A    between atoms: _201  and  _202
REMARK   83  A    between atoms: _205  and  _207
REMARK   84  A    between atoms: _207  and  _208
REMARK   85  A    between atoms: _207  and  _210
REMARK   86  A    between atoms: _210  and  _211
REMARK   87  A    between atoms: _214  and  _216
REMARK   88  A    between atoms: _216  and  _217
REMARK   89  A    between atoms: _216  and  _219
REMARK   90  A    between atoms: _219  and  _220
REMARK   91  A    between atoms: _226  and  _228
REMARK   92  A    between atoms: _228  and  _229
REMARK   93  A    between atoms: _228  and  _231
REMARK   94  A    between atoms: _231  and  _232
REMARK   95  A    between atoms: _237  and  _239
REMARK   96  A    between atoms: _239  and  _240
REMARK   97  A    between atoms: _239  and  _242
REMARK   98  A    between atoms: _242  and  _243
REMARK   99  A    between atoms: _253  and  _255
REMARK  100  A    between atoms: _255  and  _256
REMARK  101  A    between atoms: _255  and  _258
REMARK  102  A    between atoms: _258  and  _259
REMARK  103  A    between atoms: _264  and  _265
REMARK  104  A    between atoms: _267  and  _269
REMARK  105  A    between atoms: _269  and  _270
REMARK  106  A    between atoms: _273  and  _275
REMARK  107  A    between atoms: _275  and  _276
REMARK  108  A    between atoms: _275  and  _278
REMARK  109  A    between atoms: _278  and  _279
REMARK  110  A    between atoms: _285  and  _287
REMARK  111  A    between atoms: _287  and  _288
REMARK  112  A    between atoms: _287  and  _290
REMARK  113  A    between atoms: _290  and  _291
REMARK  114  A    between atoms: _296  and  _298
REMARK  115  A    between atoms: _298  and  _299
REMARK  116  A    between atoms: _298  and  _301
REMARK  117  A    between atoms: _301  and  _302
REMARK  118  A    between atoms: _307  and  _309
REMARK  119  A    between atoms: _309  and  _310
REMARK  120  A    between atoms: _309  and  _312
REMARK  121  A    between atoms: _312  and  _313
REMARK  122  A    between atoms: _313  and  _314
REMARK  123  A    between atoms: _319  and  _321
REMARK  124  A    between atoms: _321  and  _322
REMARK  125  A    between atoms: _321  and  _324
REMARK  126  A    between atoms: _324  and  _325
REMARK  127  A    between atoms: _330  and  _331
REMARK  128  A    between atoms: _333  and  _335
REMARK  129  A    between atoms: _335  and  _336
REMARK  130  A    between atoms: _335  and  _338
REMARK  131  A    between atoms: _338  and  _339
REMARK  132  A    between atoms: _342  and  _344
REMARK  133  A    between atoms: _344  and  _345
REMARK  134  A    between atoms: _348  and  _350
REMARK  135  A    between atoms: _350  and  _351
REMARK  136  A    between atoms: _350  and  _353
REMARK  137  A    between atoms: _353  and  _354
REMARK  138  A    between atoms: _356  and  _358
REMARK  139  A    between atoms: _358  and  _359
REMARK  140  A    between atoms: _358  and  _361
REMARK  141  A    between atoms: _361  and  _362
REMARK  142  A    between atoms: _367  and  _368
REMARK  143  A    between atoms: _370  and  _372
REMARK  144  A    between atoms: _372  and  _373
REMARK  145  A    between atoms: _372  and  _375
REMARK  146  A    between atoms: _375  and  _376
REMARK  147  A    between atoms: _376  and  _377
REMARK  148  A    between atoms: _379  and  _381
REMARK  149  A    between atoms: _381  and  _382
REMARK  150  A    between atoms: _381  and  _384
REMARK  151  A    between atoms: _384  and  _385
REMARK  152  A    between atoms: _385  and  _386
REMARK  153  A    between atoms: _386  and  _387
REMARK  154  A    between atoms: _387  and  _388
REMARK  155  A    between atoms: _392  and  _394
REMARK  156  A    between atoms: _394  and  _395
REMARK  157  A    between atoms: _394  and  _397
REMARK  158  A    between atoms: _397  and  _398
REMARK  159  A    between atoms: _400  and  _402
REMARK  160  A    between atoms: _402  and  _403
REMARK  161  A    between atoms: _402  and  _405
REMARK  162  A    between atoms: _405  and  _406
REMARK  163  A    between atoms: _411  and  _412
REMARK  164  A    between atoms: _414  and  _416
REMARK  165  A    between atoms: _416  and  _417
REMARK  166  A    between atoms: _416  and  _419
REMARK  167  A    between atoms: _419  and  _420
REMARK  168  A    between atoms: _422  and  _424
REMARK  169  A    between atoms: _424  and  _425
REMARK  170  A    between atoms: _428  and  _430
REMARK  171  A    between atoms: _430  and  _431
REMARK  172  A    between atoms: _430  and  _433
REMARK  173  A    between atoms: _433  and  _434
REMARK  174  A    between atoms: _437  and  _439
REMARK  175  A    between atoms: _439  and  _440
REMARK  176  A    between atoms: _439  and  _442
REMARK  177  A    between atoms: _442  and  _443
REMARK  178  A    between atoms: _453  and  _455
REMARK  179  A    between atoms: _455  and  _456
REMARK  180  A    between atoms: _455  and  _458
REMARK  181  A    between atoms: _458  and  _459
REMARK  182  A    between atoms: _459  and  _460
REMARK  183  A    between atoms: _465  and  _467
REMARK  184  A    between atoms: _467  and  _468
REMARK  185  A    between atoms: _467  and  _470
REMARK  186  A    between atoms: _473  and  _475
REMARK  187  A    between atoms: _475  and  _476
REMARK  188  A    between atoms: _475  and  _478
REMARK  189  A    between atoms: _478  and  _479
REMARK  190  A    between atoms: _482  and  _484
REMARK  191  A    between atoms: _484  and  _485
REMARK  192  A    between atoms: _488  and  _490
REMARK  193  A    between atoms: _490  and  _491
REMARK  194  A    between atoms: _490  and  _493
REMARK  195  A    between atoms: _496  and  _498
REMARK  196  A    between atoms: _498  and  _499
REMARK  197  A    between atoms: _498  and  _501
REMARK  198  A    between atoms: _501  and  _502
REMARK  199  A    between atoms: _508  and  _510
REMARK  200  A    between atoms: _510  and  _511
REMARK  201  A    between atoms: _510  and  _513
REMARK  202  A    between atoms: _513  and  _514
REMARK  203  A    between atoms: _516  and  _518
REMARK  204  A    between atoms: _518  and  _519
REMARK  205  A    between atoms: _518  and  _521
REMARK  206  A    between atoms: _521  and  _522
REMARK  207  A    between atoms: _527  and  _529
REMARK  208  A    between atoms: _529  and  _530
REMARK  209  A    between atoms: _529  and  _532
REMARK  210  A    between atoms: _532  and  _533
REMARK  211  A    between atoms: _543  and  _545
REMARK  212  A    between atoms: _545  and  _546
REMARK  213  A    between atoms: _545  and  _548
REMARK  214  A    between atoms: _548  and  _549
REMARK  215  A    between atoms: _552  and  _554
REMARK  216  A    between atoms: _554  and  _555
REMARK  217  A    between atoms: _554  and  _557
REMARK  218  A    between atoms: _557  and  _558
REMARK  219  A    between atoms: _563  and  _564
REMARK  220  A    between atoms: _566  and  _568
REMARK  221  A    between atoms: _568  and  _569
REMARK  222  A    between atoms: _568  and  _571
REMARK  223  A    between atoms: _571  and  _572
REMARK  224  A    between atoms: _575  and  _577
REMARK  225  A    between atoms: _577  and  _578
REMARK  226  A    between atoms: _577  and  _580
REMARK  227  A    between atoms: _580  and  _581
REMARK  228  A    between atoms: _581  and  _582
REMARK  229  A    between atoms: _585  and  _587
REMARK  230  A    between atoms: _587  and  _588
REMARK  231  A    between atoms: _587  and  _590
REMARK  232  A    between atoms: _590  and  _591
REMARK  233  A    between atoms: _596  and  _598
REMARK  234  A    between atoms: _598  and  _599
REMARK  235  A    between atoms: _601  and  _603
REMARK  236  A    between atoms: _603  and  _604
REMARK  237  A    between atoms: _603  and  _606
REMARK  238  A    between atoms: _606  and  _607
REMARK  239  A    between atoms: _607  and  _608
REMARK  240  A    between atoms: _610  and  _612
REMARK  241  A    between atoms: _612  and  _613
REMARK  242  A    between atoms: _612  and  _615
REMARK  243  A    between atoms: _615  and  _616
REMARK  244  A    between atoms: _619  and  _621
REMARK  245  A    between atoms: _621  and  _622
REMARK  246  A    between atoms: _621  and  _624
REMARK  247  A    between atoms: _624  and  _625
REMARK  248  A    between atoms: _635  and  _637
REMARK  249  A    between atoms: _637  and  _638
REMARK  250  A    between atoms: _637  and  _640
REMARK  251  A    between atoms: _640  and  _641
REMARK  252  A    between atoms: _643  and  _645
REMARK  253  A    between atoms: _645  and  _646
REMARK  254  A    between atoms: _645  and  _648
REMARK  255  A    between atoms: _648  and  _649
REMARK  256  A    between atoms: _654  and  _656
REMARK  257  A    between atoms: _656  and  _657
REMARK  258  A    between atoms: _656  and  _659
REMARK  259  A    between atoms: _659  and  _660
REMARK  260  A    between atoms: _666  and  _668
REMARK  261  A    between atoms: _668  and  _669
REMARK  262  A    between atoms: _668  and  _671
REMARK  263  A    between atoms: _671  and  _672
REMARK  264  A    between atoms: _672  and  _673
REMARK  265  A    between atoms: _676  and  _678
REMARK  266  A    between atoms: _678  and  _679
REMARK  267  A    between atoms: _678  and  _681
REMARK  268  A    between atoms: _681  and  _682
REMARK  269  A    between atoms: _692  and  _694
REMARK  270  A    between atoms: _694  and  _695
REMARK  271  A    between atoms: _694  and  _697
REMARK  272  A    between atoms: _697  and  _698
REMARK  273  A    between atoms: _701  and  _703
REMARK  274  A    between atoms: _703  and  _704
REMARK  275  A    between atoms: _703  and  _706
REMARK  276  A    between atoms: _706  and  _707
REMARK  277  A    between atoms: _709  and  _711
REMARK  278  A    between atoms: _711  and  _712
REMARK  279  A    between atoms: _711  and  _714
REMARK  280  A    between atoms: _714  and  _715
REMARK  281  A    between atoms: _717  and  _719
REMARK  282  A    between atoms: _719  and  _720
REMARK  283  A    between atoms: _719  and  _722
REMARK  284  A    between atoms: _722  and  _723
REMARK                            x       y       z     vdW  Elec       q    Type
REMARK                         _______ _______ _______ _____ _____    ______ ____
ROOT
ATOM      1  O   HOH     1     -10.292   1.233  53.910  0.00  0.00    +0.000 OA
ENDROOT
TORSDOF 0
REMARK  Name = ../refined-set-2016/4qlk/4qlk_pocket.pdb
REMARK  284 active torsions:
REMARK  status: ('A' for Active; 'I' for Inactive)
REMARK    1  A    between atoms: _1  and  _3
REMARK    2  A    between atoms: _3  and  _4
REMARK    3  A    between atoms: _3  and  _6
REMARK    4  A    between atoms: _9  and  _11
REMARK    5  A    between atoms: _11  and  _12
REMARK    6  A    between atoms: _11  and  _14
REMARK    7  A    between atoms: _14  and  _15
REMARK    8  A    between atoms: _18  and  _20
REMARK    9  A    between atoms: _20  and  _21
REMARK   10  A    between atoms: _20  and  _23
REMARK   11  A    between atoms: _23  and  _24
REMARK   12  A    between atoms: _26  and  _28
REMARK   13  A    between atoms: _28  and  _29
REMARK   14  A    between atoms: _28  and  _31
REMARK   15  A    between atoms: _31  and  _32
REMARK   16  A    between atoms: _32  and  _33
REMARK   17  A    between atoms: _38  and  _40
REMARK   18  A    between atoms: _40  and  _41
REMARK   19  A    between atoms: _40  and  _43
REMARK   20  A    between atoms: _43  and  _44
REMARK   21  A    between atoms: _44  and  _45
REMARK   22  A    between atoms: _45  and  _46
REMARK   23  A    between atoms: _55  and  _57
REMARK   24  A    between atoms: _57  and  _58
REMARK   25  A    between atoms: _57  and  _60
REMARK   26  A    between atoms: _60  and  _61
REMARK   27  A    between atoms: _66  and  _68
REMARK   28  A    between atoms: _68  and  _69
REMARK   29  A    between atoms: _68  and  _71
REMARK   30  A    between atoms: _71  and  _72
REMARK   31  A    between atoms: _77  and  _78
REMARK   32  A    between atoms: _80  and  _82
REMARK   33  A    between atoms: _82  and  _83
REMARK   34  A    between atoms: _82  and  _85
REMARK   35  A    between atoms: _85  and  _86
REMARK   36  A    between atoms: _91  and  _93
REMARK   37  A    between atoms: _93  and  _94
REMARK   38  A    between atoms: _93  and  _96
REMARK   39  A    between atoms: _96  and  _97
REMARK   40  A    between atoms: _97  and  _98
REMARK   41  A    between atoms: _103  and  _105
REMARK   42  A    between atoms: _105  and  _106
REMARK   43  A    between atoms: _105  and  _108
REMARK   44  A    between atoms: _108  and  _109
REMARK   45  A    between atoms: _109  and  _110
REMARK   46  A    between atoms: _110  and  _111
REMARK   47  A    between atoms: _120  and  _122
REMARK   48  A    between atoms: _122  and  _123
REMARK   49  A    between atoms: _122  and  _125
REMARK   50  A    between atoms: _125  and  _126
REMARK   51  A    between atoms: _129  and  _131
REMARK   52  A    between atoms: _131  and  _132
REMARK   53  A    between atoms: _131  and  _134
REMARK   54  A    between atoms: _134  and  _135
REMARK   55  A    between atoms: _138  and  _140
REMARK   56  A    between atoms: _140  and  _141
REMARK   57  A    between atoms: _140  and  _143
REMARK   58  A    between atoms: _143  and  _144
REMARK   59  A    between atoms: _147  and  _149
REMARK   60  A    between atoms: _149  and  _150
REMARK   61  A    between atoms: _149  and  _152
REMARK   62  A    between atoms: _152  and  _153
REMARK   63  A    between atoms: _156  and  _158
REMARK   64  A    between atoms: _158  and  _159
REMARK   65  A    between atoms: _158  and  _161
REMARK   66  A    between atoms: _161  and  _162
REMARK   67  A    between atoms: _162  and  _163
REMARK   68  A    between atoms: _168  and  _170
REMARK   69  A    between atoms: _170  and  _171
REMARK   70  A    between atoms: _170  and  _173
REMARK   71  A    between atoms: _173  and  _174
REMARK   72  A    between atoms: _177  and  _179
REMARK   73  A    between atoms: _179  and  _180
REMARK   74  A    between atoms: _179  and  _182
REMARK   75  A    between atoms: _182  and  _183
REMARK   76  A    between atoms: _188  and  _190
REMARK   77  A    between atoms: _190  and  _191
REMARK   78  A    between atoms: _190  and  _193
REMARK   79  A    between atoms: _196  and  _198
REMARK   80  A    between atoms: _198  and  _199
REMARK   81  A    between atoms: _198  and  _201
REMARK   82  A    between atoms: _201  and  _202
REMARK   83  A    between atoms: _205  and  _207
REMARK   84  A    between atoms: _207  and  _208
REMARK   85  A    between atoms: _207  and  _210
REMARK   86  A    between atoms: _210  and  _211
REMARK   87  A    between atoms: _214  and  _216
REMARK   88  A    between atoms: _216  and  _217
REMARK   89  A    between atoms: _216  and  _219
REMARK   90  A    between atoms: _219  and  _220
REMARK   91  A    between atoms: _226  and  _228
REMARK   92  A    between atoms: _228  and  _229
REMARK   93  A    between atoms: _228  and  _231
REMARK   94  A    between atoms: _231  and  _232
REMARK   95  A    between atoms: _237  and  _239
REMARK   96  A    between atoms: _239  and  _240
REMARK   97  A    between atoms: _239  and  _242
REMARK   98  A    between atoms: _242  and  _243
REMARK   99  A    between atoms: _253  and  _255
REMARK  100  A    between atoms: _255  and  _256
REMARK  101  A    between atoms: _255  and  _258
REMARK  102  A    between atoms: _258  and  _259
REMARK  103  A    between atoms: _264  and  _265
REMARK  104  A    between atoms: _267  and  _269
REMARK  105  A    between atoms: _269  and  _270
REMARK  106  A    between atoms: _273  and  _275
REMARK  107  A    between atoms: _275  and  _276
REMARK  108  A    between atoms: _275  and  _278
REMARK  109  A    between atoms: _278  and  _279
REMARK  110  A    between atoms: _285  and  _287
REMARK  111  A    between atoms: _287  and  _288
REMARK  112  A    between atoms: _287  and  _290
REMARK  113  A    between atoms: _290  and  _291
REMARK  114  A    between atoms: _296  and  _298
REMARK  115  A    between atoms: _298  and  _299
REMARK  116  A    between atoms: _298  and  _301
REMARK  117  A    between atoms: _301  and  _302
REMARK  118  A    between atoms: _307  and  _309
REMARK  119  A    between atoms: _309  and  _310
REMARK  120  A    between atoms: _309  and  _312
REMARK  121  A    between atoms: _312  and  _313
REMARK  122  A    between atoms: _313  and  _314
REMARK  123  A    between atoms: _319  and  _321
REMARK  124  A    between atoms: _321  and  _322
REMARK  125  A    between atoms: _321  and  _324
REMARK  126  A    between atoms: _324  and  _325
REMARK  127  A    between atoms: _330  and  _331
REMARK  128  A    between atoms: _333  and  _335
REMARK  129  A    between atoms: _335  and  _336
REMARK  130  A    between atoms: _335  and  _338
REMARK  131  A    between atoms: _338  and  _339
REMARK  132  A    between atoms: _342  and  _344
REMARK  133  A    between atoms: _344  and  _345
REMARK  134  A    between atoms: _348  and  _350
REMARK  135  A    between atoms: _350  and  _351
REMARK  136  A    between atoms: _350  and  _353
REMARK  137  A    between atoms: _353  and  _354
REMARK  138  A    between atoms: _356  and  _358
REMARK  139  A    between atoms: _358  and  _359
REMARK  140  A    between atoms: _358  and  _361
REMARK  141  A    between atoms: _361  and  _362
REMARK  142  A    between atoms: _367  and  _368
REMARK  143  A    between atoms: _370  and  _372
REMARK  144  A    between atoms: _372  and  _373
REMARK  145  A    between atoms: _372  and  _375
REMARK  146  A    between atoms: _375  and  _376
REMARK  147  A    between atoms: _376  and  _377
REMARK  148  A    between atoms: _379  and  _381
REMARK  149  A    between atoms: _381  and  _382
REMARK  150  A    between atoms: _381  and  _384
REMARK  151  A    between atoms: _384  and  _385
REMARK  152  A    between atoms: _385  and  _386
REMARK  153  A    between atoms: _386  and  _387
REMARK  154  A    between atoms: _387  and  _388
REMARK  155  A    between atoms: _392  and  _394
REMARK  156  A    between atoms: _394  and  _395
REMARK  157  A    between atoms: _394  and  _397
REMARK  158  A    between atoms: _397  and  _398
REMARK  159  A    between atoms: _400  and  _402
REMARK  160  A    between atoms: _402  and  _403
REMARK  161  A    between atoms: _402  and  _405
REMARK  162  A    between atoms: _405  and  _406
REMARK  163  A    between atoms: _411  and  _412
REMARK  164  A    between atoms: _414  and  _416
REMARK  165  A    between atoms: _416  and  _417
REMARK  166  A    between atoms: _416  and  _419
REMARK  167  A    between atoms: _419  and  _420
REMARK  168  A    between atoms: _422  and  _424
REMARK  169  A    between atoms: _424  and  _425
REMARK  170  A    between atoms: _428  and  _430
REMARK  171  A    between atoms: _430  and  _431
REMARK  172  A    between atoms: _430  and  _433
REMARK  173  A    between atoms: _433  and  _434
REMARK  174  A    between atoms: _437  and  _439
REMARK  175  A    between atoms: _439  and  _440
REMARK  176  A    between atoms: _439  and  _442
REMARK  177  A    between atoms: _442  and  _443
REMARK  178  A    between atoms: _453  and  _455
REMARK  179  A    between atoms: _455  and  _456
REMARK  180  A    between atoms: _455  and  _458
REMARK  181  A    between atoms: _458  and  _459
REMARK  182  A    between atoms: _459  and  _460
REMARK  183  A    between atoms: _465  and  _467
REMARK  184  A    between atoms: _467  and  _468
REMARK  185  A    between atoms: _467  and  _470
REMARK  186  A    between atoms: _473  and  _475
REMARK  187  A    between atoms: _475  and  _476
REMARK  188  A    between atoms: _475  and  _478
REMARK  189  A    between atoms: _478  and  _479
REMARK  190  A    between atoms: _482  and  _484
REMARK  191  A    between atoms: _484  and  _485
REMARK  192  A    between atoms: _488  and  _490
REMARK  193  A    between atoms: _490  and  _491
REMARK  194  A    between atoms: _490  and  _493
REMARK  195  A    between atoms: _496  and  _498
REMARK  196  A    between atoms: _498  and  _499
REMARK  197  A    between atoms: _498  and  _501
REMARK  198  A    between atoms: _501  and  _502
REMARK  199  A    between atoms: _508  and  _510
REMARK  200  A    between atoms: _510  and  _511
REMARK  201  A    between atoms: _510  and  _513
REMARK  202  A    between atoms: _513  and  _514
REMARK  203  A    between atoms: _516  and  _518
REMARK  204  A    between atoms: _518  and  _519
REMARK  205  A    between atoms: _518  and  _521
REMARK  206  A    between atoms: _521  and  _522
REMARK  207  A    between atoms: _527  and  _529
REMARK  208  A    between atoms: _529  and  _530
REMARK  209  A    between atoms: _529  and  _532
REMARK  210  A    between atoms: _532  and  _533
REMARK  211  A    between atoms: _543  and  _545
REMARK  212  A    between atoms: _545  and  _546
REMARK  213  A    between atoms: _545  and  _548
REMARK  214  A    between atoms: _548  and  _549
REMARK  215  A    between atoms: _552  and  _554
REMARK  216  A    between atoms: _554  and  _555
REMARK  217  A    between atoms: _554  and  _557
REMARK  218  A    between atoms: _557  and  _558
REMARK  219  A    between atoms: _563  and  _564
REMARK  220  A    between atoms: _566  and  _568
REMARK  221  A    between atoms: _568  and  _569
REMARK  222  A    between atoms: _568  and  _571
REMARK  223  A    between atoms: _571  and  _572
REMARK  224  A    between atoms: _575  and  _577
REMARK  225  A    between atoms: _577  and  _578
REMARK  226  A    between atoms: _577  and  _580
REMARK  227  A    between atoms: _580  and  _581
REMARK  228  A    between atoms: _581  and  _582
REMARK  229  A    between atoms: _585  and  _587
REMARK  230  A    between atoms: _587  and  _588
REMARK  231  A    between atoms: _587  and  _590
REMARK  232  A    between atoms: _590  and  _591
REMARK  233  A    between atoms: _596  and  _598
REMARK  234  A    between atoms: _598  and  _599
REMARK  235  A    between atoms: _601  and  _603
REMARK  236  A    between atoms: _603  and  _604
REMARK  237  A    between atoms: _603  and  _606
REMARK  238  A    between atoms: _606  and  _607
REMARK  239  A    between atoms: _607  and  _608
REMARK  240  A    between atoms: _610  and  _612
REMARK  241  A    between atoms: _612  and  _613
REMARK  242  A    between atoms: _612  and  _615
REMARK  243  A    between atoms: _615  and  _616
REMARK  244  A    between atoms: _619  and  _621
REMARK  245  A    between atoms: _621  and  _622
REMARK  246  A    between atoms: _621  and  _624
REMARK  247  A    between atoms: _624  and  _625
REMARK  248  A    between atoms: _635  and  _637
REMARK  249  A    between atoms: _637  and  _638
REMARK  250  A    between atoms: _637  and  _640
REMARK  251  A    between atoms: _640  and  _641
REMARK  252  A    between atoms: _643  and  _645
REMARK  253  A    between atoms: _645  and  _646
REMARK  254  A    between atoms: _645  and  _648
REMARK  255  A    between atoms: _648  and  _649
REMARK  256  A    between atoms: _654  and  _656
REMARK  257  A    between atoms: _656  and  _657
REMARK  258  A    between atoms: _656  and  _659
REMARK  259  A    between atoms: _659  and  _660
REMARK  260  A    between atoms: _666  and  _668
REMARK  261  A    between atoms: _668  and  _669
REMARK  262  A    between atoms: _668  and  _671
REMARK  263  A    between atoms: _671  and  _672
REMARK  264  A    between atoms: _672  and  _673
REMARK  265  A    between atoms: _676  and  _678
REMARK  266  A    between atoms: _678  and  _679
REMARK  267  A    between atoms: _678  and  _681
REMARK  268  A    between atoms: _681  and  _682
REMARK  269  A    between atoms: _692  and  _694
REMARK  270  A    between atoms: _694  and  _695
REMARK  271  A    between atoms: _694  and  _697
REMARK  272  A    between atoms: _697  and  _698
REMARK  273  A    between atoms: _701  and  _703
REMARK  274  A    between atoms: _703  and  _704
REMARK  275  A    between atoms: _703  and  _706
REMARK  276  A    between atoms: _706  and  _707
REMARK  277  A    between atoms: _709  and  _711
REMARK  278  A    between atoms: _711  and  _712
REMARK  279  A    between atoms: _711  and  _714
REMARK  280  A    between atoms: _714  and  _715
REMARK  281  A    between atoms: _717  and  _719
REMARK  282  A    between atoms: _719  and  _720
REMARK  283  A    between atoms: _719  and  _722
REMARK  284  A    between atoms: _722  and  _723
REMARK                            x       y       z     vdW  Elec       q    Type
REMARK                         _______ _______ _______ _____ _____    ______ ____
ROOT
ATOM      1  O   HOH     1     -19.498  -0.204  61.229  0.00  0.00    +0.000 OA
ENDROOT
TORSDOF 0
REMARK  Name = ../refined-set-2016/4qlk/4qlk_pocket.pdb
REMARK  284 active torsions:
REMARK  status: ('A' for Active; 'I' for Inactive)
REMARK    1  A    between atoms: _1  and  _3
REMARK    2  A    between atoms: _3  and  _4
REMARK    3  A    between atoms: _3  and  _6
REMARK    4  A    between atoms: _9  and  _11
REMARK    5  A    between atoms: _11  and  _12
REMARK    6  A    between atoms: _11  and  _14
REMARK    7  A    between atoms: _14  and  _15
REMARK    8  A    between atoms: _18  and  _20
REMARK    9  A    between atoms: _20  and  _21
REMARK   10  A    between atoms: _20  and  _23
REMARK   11  A    between atoms: _23  and  _24
REMARK   12  A    between atoms: _26  and  _28
REMARK   13  A    between atoms: _28  and  _29
REMARK   14  A    between atoms: _28  and  _31
REMARK   15  A    between atoms: _31  and  _32
REMARK   16  A    between atoms: _32  and  _33
REMARK   17  A    between atoms: _38  and  _40
REMARK   18  A    between atoms: _40  and  _41
REMARK   19  A    between atoms: _40  and  _43
REMARK   20  A    between atoms: _43  and  _44
REMARK   21  A    between atoms: _44  and  _45
REMARK   22  A    between atoms: _45  and  _46
REMARK   23  A    between atoms: _55  and  _57
REMARK   24  A    between atoms: _57  and  _58
REMARK   25  A    between atoms: _57  and  _60
REMARK   26  A    between atoms: _60  and  _61
REMARK   27  A    between atoms: _66  and  _68
REMARK   28  A    between atoms: _68  and  _69
REMARK   29  A    between atoms: _68  and  _71
REMARK   30  A    between atoms: _71  and  _72
REMARK   31  A    between atoms: _77  and  _78
REMARK   32  A    between atoms: _80  and  _82
REMARK   33  A    between atoms: _82  and  _83
REMARK   34  A    between atoms: _82  and  _85
REMARK   35  A    between atoms: _85  and  _86
REMARK   36  A    between atoms: _91  and  _93
REMARK   37  A    between atoms: _93  and  _94
REMARK   38  A    between atoms: _93  and  _96
REMARK   39  A    between atoms: _96  and  _97
REMARK   40  A    between atoms: _97  and  _98
REMARK   41  A    between atoms: _103  and  _105
REMARK   42  A    between atoms: _105  and  _106
REMARK   43  A    between atoms: _105  and  _108
REMARK   44  A    between atoms: _108  and  _109
REMARK   45  A    between atoms: _109  and  _110
REMARK   46  A    between atoms: _110  and  _111
REMARK   47  A    between atoms: _120  and  _122
REMARK   48  A    between atoms: _122  and  _123
REMARK   49  A    between atoms: _122  and  _125
REMARK   50  A    between atoms: _125  and  _126
REMARK   51  A    between atoms: _129  and  _131
REMARK   52  A    between atoms: _131  and  _132
REMARK   53  A    between atoms: _131  and  _134
REMARK   54  A    between atoms: _134  and  _135
REMARK   55  A    between atoms: _138  and  _140
REMARK   56  A    between atoms: _140  and  _141
REMARK   57  A    between atoms: _140  and  _143
REMARK   58  A    between atoms: _143  and  _144
REMARK   59  A    between atoms: _147  and  _149
REMARK   60  A    between atoms: _149  and  _150
REMARK   61  A    between atoms: _149  and  _152
REMARK   62  A    between atoms: _152  and  _153
REMARK   63  A    between atoms: _156  and  _158
REMARK   64  A    between atoms: _158  and  _159
REMARK   65  A    between atoms: _158  and  _161
REMARK   66  A    between atoms: _161  and  _162
REMARK   67  A    between atoms: _162  and  _163
REMARK   68  A    between atoms: _168  and  _170
REMARK   69  A    between atoms: _170  and  _171
REMARK   70  A    between atoms: _170  and  _173
REMARK   71  A    between atoms: _173  and  _174
REMARK   72  A    between atoms: _177  and  _179
REMARK   73  A    between atoms: _179  and  _180
REMARK   74  A    between atoms: _179  and  _182
REMARK   75  A    between atoms: _182  and  _183
REMARK   76  A    between atoms: _188  and  _190
REMARK   77  A    between atoms: _190  and  _191
REMARK   78  A    between atoms: _190  and  _193
REMARK   79  A    between atoms: _196  and  _198
REMARK   80  A    between atoms: _198  and  _199
REMARK   81  A    between atoms: _198  and  _201
REMARK   82  A    between atoms: _201  and  _202
REMARK   83  A    between atoms: _205  and  _207
REMARK   84  A    between atoms: _207  and  _208
REMARK   85  A    between atoms: _207  and  _210
REMARK   86  A    between atoms: _210  and  _211
REMARK   87  A    between atoms: _214  and  _216
REMARK   88  A    between atoms: _216  and  _217
REMARK   89  A    between atoms: _216  and  _219
REMARK   90  A    between atoms: _219  and  _220
REMARK   91  A    between atoms: _226  and  _228
REMARK   92  A    between atoms: _228  and  _229
REMARK   93  A    between atoms: _228  and  _231
REMARK   94  A    between atoms: _231  and  _232
REMARK   95  A    between atoms: _237  and  _239
REMARK   96  A    between atoms: _239  and  _240
REMARK   97  A    between atoms: _239  and  _242
REMARK   98  A    between atoms: _242  and  _243
REMARK   99  A    between atoms: _253  and  _255
REMARK  100  A    between atoms: _255  and  _256
REMARK  101  A    between atoms: _255  and  _258
REMARK  102  A    between atoms: _258  and  _259
REMARK  103  A    between atoms: _264  and  _265
REMARK  104  A    between atoms: _267  and  _269
REMARK  105  A    between atoms: _269  and  _270
REMARK  106  A    between atoms: _273  and  _275
REMARK  107  A    between atoms: _275  and  _276
REMARK  108  A    between atoms: _275  and  _278
REMARK  109  A    between atoms: _278  and  _279
REMARK  110  A    between atoms: _285  and  _287
REMARK  111  A    between atoms: _287  and  _288
REMARK  112  A    between atoms: _287  and  _290
REMARK  113  A    between atoms: _290  and  _291
REMARK  114  A    between atoms: _296  and  _298
REMARK  115  A    between atoms: _298  and  _299
REMARK  116  A    between atoms: _298  and  _301
REMARK  117  A    between atoms: _301  and  _302
REMARK  118  A    between atoms: _307  and  _309
REMARK  119  A    between atoms: _309  and  _310
REMARK  120  A    between atoms: _309  and  _312
REMARK  121  A    between atoms: _312  and  _313
REMARK  122  A    between atoms: _313  and  _314
REMARK  123  A    between atoms: _319  and  _321
REMARK  124  A    between atoms: _321  and  _322
REMARK  125  A    between atoms: _321  and  _324
REMARK  126  A    between atoms: _324  and  _325
REMARK  127  A    between atoms: _330  and  _331
REMARK  128  A    between atoms: _333  and  _335
REMARK  129  A    between atoms: _335  and  _336
REMARK  130  A    between atoms: _335  and  _338
REMARK  131  A    between atoms: _338  and  _339
REMARK  132  A    between atoms: _342  and  _344
REMARK  133  A    between atoms: _344  and  _345
REMARK  134  A    between atoms: _348  and  _350
REMARK  135  A    between atoms: _350  and  _351
REMARK  136  A    between atoms: _350  and  _353
REMARK  137  A    between atoms: _353  and  _354
REMARK  138  A    between atoms: _356  and  _358
REMARK  139  A    between atoms: _358  and  _359
REMARK  140  A    between atoms: _358  and  _361
REMARK  141  A    between atoms: _361  and  _362
REMARK  142  A    between atoms: _367  and  _368
REMARK  143  A    between atoms: _370  and  _372
REMARK  144  A    between atoms: _372  and  _373
REMARK  145  A    between atoms: _372  and  _375
REMARK  146  A    between atoms: _375  and  _376
REMARK  147  A    between atoms: _376  and  _377
REMARK  148  A    between atoms: _379  and  _381
REMARK  149  A    between atoms: _381  and  _382
REMARK  150  A    between atoms: _381  and  _384
REMARK  151  A    between atoms: _384  and  _385
REMARK  152  A    between atoms: _385  and  _386
REMARK  153  A    between atoms: _386  and  _387
REMARK  154  A    between atoms: _387  and  _388
REMARK  155  A    between atoms: _392  and  _394
REMARK  156  A    between atoms: _394  and  _395
REMARK  157  A    between atoms: _394  and  _397
REMARK  158  A    between atoms: _397  and  _398
REMARK  159  A    between atoms: _400  and  _402
REMARK  160  A    between atoms: _402  and  _403
REMARK  161  A    between atoms: _402  and  _405
REMARK  162  A    between atoms: _405  and  _406
REMARK  163  A    between atoms: _411  and  _412
REMARK  164  A    between atoms: _414  and  _416
REMARK  165  A    between atoms: _416  and  _417
REMARK  166  A    between atoms: _416  and  _419
REMARK  167  A    between atoms: _419  and  _420
REMARK  168  A    between atoms: _422  and  _424
REMARK  169  A    between atoms: _424  and  _425
REMARK  170  A    between atoms: _428  and  _430
REMARK  171  A    between atoms: _430  and  _431
REMARK  172  A    between atoms: _430  and  _433
REMARK  173  A    between atoms: _433  and  _434
REMARK  174  A    between atoms: _437  and  _439
REMARK  175  A    between atoms: _439  and  _440
REMARK  176  A    between atoms: _439  and  _442
REMARK  177  A    between atoms: _442  and  _443
REMARK  178  A    between atoms: _453  and  _455
REMARK  179  A    between atoms: _455  and  _456
REMARK  180  A    between atoms: _455  and  _458
REMARK  181  A    between atoms: _458  and  _459
REMARK  182  A    between atoms: _459  and  _460
REMARK  183  A    between atoms: _465  and  _467
REMARK  184  A    between atoms: _467  and  _468
REMARK  185  A    between atoms: _467  and  _470
REMARK  186  A    between atoms: _473  and  _475
REMARK  187  A    between atoms: _475  and  _476
REMARK  188  A    between atoms: _475  and  _478
REMARK  189  A    between atoms: _478  and  _479
REMARK  190  A    between atoms: _482  and  _484
REMARK  191  A    between atoms: _484  and  _485
REMARK  192  A    between atoms: _488  and  _490
REMARK  193  A    between atoms: _490  and  _491
REMARK  194  A    between atoms: _490  and  _493
REMARK  195  A    between atoms: _496  and  _498
REMARK  196  A    between atoms: _498  and  _499
REMARK  197  A    between atoms: _498  and  _501
REMARK  198  A    between atoms: _501  and  _502
REMARK  199  A    between atoms: _508  and  _510
REMARK  200  A    between atoms: _510  and  _511
REMARK  201  A    between atoms: _510  and  _513
REMARK  202  A    between atoms: _513  and  _514
REMARK  203  A    between atoms: _516  and  _518
REMARK  204  A    between atoms: _518  and  _519
REMARK  205  A    between atoms: _518  and  _521
REMARK  206  A    between atoms: _521  and  _522
REMARK  207  A    between atoms: _527  and  _529
REMARK  208  A    between atoms: _529  and  _530
REMARK  209  A    between atoms: _529  and  _532
REMARK  210  A    between atoms: _532  and  _533
REMARK  211  A    between atoms: _543  and  _545
REMARK  212  A    between atoms: _545  and  _546
REMARK  213  A    between atoms: _545  and  _548
REMARK  214  A    between atoms: _548  and  _549
REMARK  215  A    between atoms: _552  and  _554
REMARK  216  A    between atoms: _554  and  _555
REMARK  217  A    between atoms: _554  and  _557
REMARK  218  A    between atoms: _557  and  _558
REMARK  219  A    between atoms: _563  and  _564
REMARK  220  A    between atoms: _566  and  _568
REMARK  221  A    between atoms: _568  and  _569
REMARK  222  A    between atoms: _568  and  _571
REMARK  223  A    between atoms: _571  and  _572
REMARK  224  A    between atoms: _575  and  _577
REMARK  225  A    between atoms: _577  and  _578
REMARK  226  A    between atoms: _577  and  _580
REMARK  227  A    between atoms: _580  and  _581
REMARK  228  A    between atoms: _581  and  _582
REMARK  229  A    between atoms: _585  and  _587
REMARK  230  A    between atoms: _587  and  _588
REMARK  231  A    between atoms: _587  and  _590
REMARK  232  A    between atoms: _590  and  _591
REMARK  233  A    between atoms: _596  and  _598
REMARK  234  A    between atoms: _598  and  _599
REMARK  235  A    between atoms: _601  and  _603
REMARK  236  A    between atoms: _603  and  _604
REMARK  237  A    between atoms: _603  and  _606
REMARK  238  A    between atoms: _606  and  _607
REMARK  239  A    between atoms: _607  and  _608
REMARK  240  A    between atoms: _610  and  _612
REMARK  241  A    between atoms: _612  and  _613
REMARK  242  A    between atoms: _612  and  _615
REMARK  243  A    between atoms: _615  and  _616
REMARK  244  A    between atoms: _619  and  _621
REMARK  245  A    between atoms: _621  and  _622
REMARK  246  A    between atoms: _621  and  _624
REMARK  247  A    between atoms: _624  and  _625
REMARK  248  A    between atoms: _635  and  _637
REMARK  249  A    between atoms: _637  and  _638
REMARK  250  A    between atoms: _637  and  _640
REMARK  251  A    between atoms: _640  and  _641
REMARK  252  A    between atoms: _643  and  _645
REMARK  253  A    between atoms: _645  and  _646
REMARK  254  A    between atoms: _645  and  _648
REMARK  255  A    between atoms: _648  and  _649
REMARK  256  A    between atoms: _654  and  _656
REMARK  257  A    between atoms: _656  and  _657
REMARK  258  A    between atoms: _656  and  _659
REMARK  259  A    between atoms: _659  and  _660
REMARK  260  A    between atoms: _666  and  _668
REMARK  261  A    between atoms: _668  and  _669
REMARK  262  A    between atoms: _668  and  _671
REMARK  263  A    between atoms: _671  and  _672
REMARK  264  A    between atoms: _672  and  _673
REMARK  265  A    between atoms: _676  and  _678
REMARK  266  A    between atoms: _678  and  _679
REMARK  267  A    between atoms: _678  and  _681
REMARK  268  A    between atoms: _681  and  _682
REMARK  269  A    between atoms: _692  and  _694
REMARK  270  A    between atoms: _694  and  _695
REMARK  271  A    between atoms: _694  and  _697
REMARK  272  A    between atoms: _697  and  _698
REMARK  273  A    between atoms: _701  and  _703
REMARK  274  A    between atoms: _703  and  _704
REMARK  275  A    between atoms: _703  and  _706
REMARK  276  A    between atoms: _706  and  _707
REMARK  277  A    between atoms: _709  and  _711
REMARK  278  A    between atoms: _711  and  _712
REMARK  279  A    between atoms: _711  and  _714
REMARK  280  A    between atoms: _714  and  _715
REMARK  281  A    between atoms: _717  and  _719
REMARK  282  A    between atoms: _719  and  _720
REMARK  283  A    between atoms: _719  and  _722
REMARK  284  A    between atoms: _722  and  _723
REMARK                            x       y       z     vdW  Elec       q    Type
REMARK                         _______ _______ _______ _____ _____    ______ ____
ROOT
ATOM      1  O   HOH     1     -14.262  -2.511  52.685  0.00  0.00    +0.000 OA
ENDROOT
TORSDOF 0
REMARK  Name = ../refined-set-2016/4qlk/4qlk_pocket.pdb
REMARK  284 active torsions:
REMARK  status: ('A' for Active; 'I' for Inactive)
REMARK    1  A    between atoms: _1  and  _3
REMARK    2  A    between atoms: _3  and  _4
REMARK    3  A    between atoms: _3  and  _6
REMARK    4  A    between atoms: _9  and  _11
REMARK    5  A    between atoms: _11  and  _12
REMARK    6  A    between atoms: _11  and  _14
REMARK    7  A    between atoms: _14  and  _15
REMARK    8  A    between atoms: _18  and  _20
REMARK    9  A    between atoms: _20  and  _21
REMARK   10  A    between atoms: _20  and  _23
REMARK   11  A    between atoms: _23  and  _24
REMARK   12  A    between atoms: _26  and  _28
REMARK   13  A    between atoms: _28  and  _29
REMARK   14  A    between atoms: _28  and  _31
REMARK   15  A    between atoms: _31  and  _32
REMARK   16  A    between atoms: _32  and  _33
REMARK   17  A    between atoms: _38  and  _40
REMARK   18  A    between atoms: _40  and  _41
REMARK   19  A    between atoms: _40  and  _43
REMARK   20  A    between atoms: _43  and  _44
REMARK   21  A    between atoms: _44  and  _45
REMARK   22  A    between atoms: _45  and  _46
REMARK   23  A    between atoms: _55  and  _57
REMARK   24  A    between atoms: _57  and  _58
REMARK   25  A    between atoms: _57  and  _60
REMARK   26  A    between atoms: _60  and  _61
REMARK   27  A    between atoms: _66  and  _68
REMARK   28  A    between atoms: _68  and  _69
REMARK   29  A    between atoms: _68  and  _71
REMARK   30  A    between atoms: _71  and  _72
REMARK   31  A    between atoms: _77  and  _78
REMARK   32  A    between atoms: _80  and  _82
REMARK   33  A    between atoms: _82  and  _83
REMARK   34  A    between atoms: _82  and  _85
REMARK   35  A    between atoms: _85  and  _86
REMARK   36  A    between atoms: _91  and  _93
REMARK   37  A    between atoms: _93  and  _94
REMARK   38  A    between atoms: _93  and  _96
REMARK   39  A    between atoms: _96  and  _97
REMARK   40  A    between atoms: _97  and  _98
REMARK   41  A    between atoms: _103  and  _105
REMARK   42  A    between atoms: _105  and  _106
REMARK   43  A    between atoms: _105  and  _108
REMARK   44  A    between atoms: _108  and  _109
REMARK   45  A    between atoms: _109  and  _110
REMARK   46  A    between atoms: _110  and  _111
REMARK   47  A    between atoms: _120  and  _122
REMARK   48  A    between atoms: _122  and  _123
REMARK   49  A    between atoms: _122  and  _125
REMARK   50  A    between atoms: _125  and  _126
REMARK   51  A    between atoms: _129  and  _131
REMARK   52  A    between atoms: _131  and  _132
REMARK   53  A    between atoms: _131  and  _134
REMARK   54  A    between atoms: _134  and  _135
REMARK   55  A    between atoms: _138  and  _140
REMARK   56  A    between atoms: _140  and  _141
REMARK   57  A    between atoms: _140  and  _143
REMARK   58  A    between atoms: _143  and  _144
REMARK   59  A    between atoms: _147  and  _149
REMARK   60  A    between atoms: _149  and  _150
REMARK   61  A    between atoms: _149  and  _152
REMARK   62  A    between atoms: _152  and  _153
REMARK   63  A    between atoms: _156  and  _158
REMARK   64  A    between atoms: _158  and  _159
REMARK   65  A    between atoms: _158  and  _161
REMARK   66  A    between atoms: _161  and  _162
REMARK   67  A    between atoms: _162  and  _163
REMARK   68  A    between atoms: _168  and  _170
REMARK   69  A    between atoms: _170  and  _171
REMARK   70  A    between atoms: _170  and  _173
REMARK   71  A    between atoms: _173  and  _174
REMARK   72  A    between atoms: _177  and  _179
REMARK   73  A    between atoms: _179  and  _180
REMARK   74  A    between atoms: _179  and  _182
REMARK   75  A    between atoms: _182  and  _183
REMARK   76  A    between atoms: _188  and  _190
REMARK   77  A    between atoms: _190  and  _191
REMARK   78  A    between atoms: _190  and  _193
REMARK   79  A    between atoms: _196  and  _198
REMARK   80  A    between atoms: _198  and  _199
REMARK   81  A    between atoms: _198  and  _201
REMARK   82  A    between atoms: _201  and  _202
REMARK   83  A    between atoms: _205  and  _207
REMARK   84  A    between atoms: _207  and  _208
REMARK   85  A    between atoms: _207  and  _210
REMARK   86  A    between atoms: _210  and  _211
REMARK   87  A    between atoms: _214  and  _216
REMARK   88  A    between atoms: _216  and  _217
REMARK   89  A    between atoms: _216  and  _219
REMARK   90  A    between atoms: _219  and  _220
REMARK   91  A    between atoms: _226  and  _228
REMARK   92  A    between atoms: _228  and  _229
REMARK   93  A    between atoms: _228  and  _231
REMARK   94  A    between atoms: _231  and  _232
REMARK   95  A    between atoms: _237  and  _239
REMARK   96  A    between atoms: _239  and  _240
REMARK   97  A    between atoms: _239  and  _242
REMARK   98  A    between atoms: _242  and  _243
REMARK   99  A    between atoms: _253  and  _255
REMARK  100  A    between atoms: _255  and  _256
REMARK  101  A    between atoms: _255  and  _258
REMARK  102  A    between atoms: _258  and  _259
REMARK  103  A    between atoms: _264  and  _265
REMARK  104  A    between atoms: _267  and  _269
REMARK  105  A    between atoms: _269  and  _270
REMARK  106  A    between atoms: _273  and  _275
REMARK  107  A    between atoms: _275  and  _276
REMARK  108  A    between atoms: _275  and  _278
REMARK  109  A    between atoms: _278  and  _279
REMARK  110  A    between atoms: _285  and  _287
REMARK  111  A    between atoms: _287  and  _288
REMARK  112  A    between atoms: _287  and  _290
REMARK  113  A    between atoms: _290  and  _291
REMARK  114  A    between atoms: _296  and  _298
REMARK  115  A    between atoms: _298  and  _299
REMARK  116  A    between atoms: _298  and  _301
REMARK  117  A    between atoms: _301  and  _302
REMARK  118  A    between atoms: _307  and  _309
REMARK  119  A    between atoms: _309  and  _310
REMARK  120  A    between atoms: _309  and  _312
REMARK  121  A    between atoms: _312  and  _313
REMARK  122  A    between atoms: _313  and  _314
REMARK  123  A    between atoms: _319  and  _321
REMARK  124  A    between atoms: _321  and  _322
REMARK  125  A    between atoms: _321  and  _324
REMARK  126  A    between atoms: _324  and  _325
REMARK  127  A    between atoms: _330  and  _331
REMARK  128  A    between atoms: _333  and  _335
REMARK  129  A    between atoms: _335  and  _336
REMARK  130  A    between atoms: _335  and  _338
REMARK  131  A    between atoms: _338  and  _339
REMARK  132  A    between atoms: _342  and  _344
REMARK  133  A    between atoms: _344  and  _345
REMARK  134  A    between atoms: _348  and  _350
REMARK  135  A    between atoms: _350  and  _351
REMARK  136  A    between atoms: _350  and  _353
REMARK  137  A    between atoms: _353  and  _354
REMARK  138  A    between atoms: _356  and  _358
REMARK  139  A    between atoms: _358  and  _359
REMARK  140  A    between atoms: _358  and  _361
REMARK  141  A    between atoms: _361  and  _362
REMARK  142  A    between atoms: _367  and  _368
REMARK  143  A    between atoms: _370  and  _372
REMARK  144  A    between atoms: _372  and  _373
REMARK  145  A    between atoms: _372  and  _375
REMARK  146  A    between atoms: _375  and  _376
REMARK  147  A    between atoms: _376  and  _377
REMARK  148  A    between atoms: _379  and  _381
REMARK  149  A    between atoms: _381  and  _382
REMARK  150  A    between atoms: _381  and  _384
REMARK  151  A    between atoms: _384  and  _385
REMARK  152  A    between atoms: _385  and  _386
REMARK  153  A    between atoms: _386  and  _387
REMARK  154  A    between atoms: _387  and  _388
REMARK  155  A    between atoms: _392  and  _394
REMARK  156  A    between atoms: _394  and  _395
REMARK  157  A    between atoms: _394  and  _397
REMARK  158  A    between atoms: _397  and  _398
REMARK  159  A    between atoms: _400  and  _402
REMARK  160  A    between atoms: _402  and  _403
REMARK  161  A    between atoms: _402  and  _405
REMARK  162  A    between atoms: _405  and  _406
REMARK  163  A    between atoms: _411  and  _412
REMARK  164  A    between atoms: _414  and  _416
REMARK  165  A    between atoms: _416  and  _417
REMARK  166  A    between atoms: _416  and  _419
REMARK  167  A    between atoms: _419  and  _420
REMARK  168  A    between atoms: _422  and  _424
REMARK  169  A    between atoms: _424  and  _425
REMARK  170  A    between atoms: _428  and  _430
REMARK  171  A    between atoms: _430  and  _431
REMARK  172  A    between atoms: _430  and  _433
REMARK  173  A    between atoms: _433  and  _434
REMARK  174  A    between atoms: _437  and  _439
REMARK  175  A    between atoms: _439  and  _440
REMARK  176  A    between atoms: _439  and  _442
REMARK  177  A    between atoms: _442  and  _443
REMARK  178  A    between atoms: _453  and  _455
REMARK  179  A    between atoms: _455  and  _456
REMARK  180  A    between atoms: _455  and  _458
REMARK  181  A    between atoms: _458  and  _459
REMARK  182  A    between atoms: _459  and  _460
REMARK  183  A    between atoms: _465  and  _467
REMARK  184  A    between atoms: _467  and  _468
REMARK  185  A    between atoms: _467  and  _470
REMARK  186  A    between atoms: _473  and  _475
REMARK  187  A    between atoms: _475  and  _476
REMARK  188  A    between atoms: _475  and  _478
REMARK  189  A    between atoms: _478  and  _479
REMARK  190  A    between atoms: _482  and  _484
REMARK  191  A    between atoms: _484  and  _485
REMARK  192  A    between atoms: _488  and  _490
REMARK  193  A    between atoms: _490  and  _491
REMARK  194  A    between atoms: _490  and  _493
REMARK  195  A    between atoms: _496  and  _498
REMARK  196  A    between atoms: _498  and  _499
REMARK  197  A    between atoms: _498  and  _501
REMARK  198  A    between atoms: _501  and  _502
REMARK  199  A    between atoms: _508  and  _510
REMARK  200  A    between atoms: _510  and  _511
REMARK  201  A    between atoms: _510  and  _513
REMARK  202  A    between atoms: _513  and  _514
REMARK  203  A    between atoms: _516  and  _518
REMARK  204  A    between atoms: _518  and  _519
REMARK  205  A    between atoms: _518  and  _521
REMARK  206  A    between atoms: _521  and  _522
REMARK  207  A    between atoms: _527  and  _529
REMARK  208  A    between atoms: _529  and  _530
REMARK  209  A    between atoms: _529  and  _532
REMARK  210  A    between atoms: _532  and  _533
REMARK  211  A    between atoms: _543  and  _545
REMARK  212  A    between atoms: _545  and  _546
REMARK  213  A    between atoms: _545  and  _548
REMARK  214  A    between atoms: _548  and  _549
REMARK  215  A    between atoms: _552  and  _554
REMARK  216  A    between atoms: _554  and  _555
REMARK  217  A    between atoms: _554  and  _557
REMARK  218  A    between atoms: _557  and  _558
REMARK  219  A    between atoms: _563  and  _564
REMARK  220  A    between atoms: _566  and  _568
REMARK  221  A    between atoms: _568  and  _569
REMARK  222  A    between atoms: _568  and  _571
REMARK  223  A    between atoms: _571  and  _572
REMARK  224  A    between atoms: _575  and  _577
REMARK  225  A    between atoms: _577  and  _578
REMARK  226  A    between atoms: _577  and  _580
REMARK  227  A    between atoms: _580  and  _581
REMARK  228  A    between atoms: _581  and  _582
REMARK  229  A    between atoms: _585  and  _587
REMARK  230  A    between atoms: _587  and  _588
REMARK  231  A    between atoms: _587  and  _590
REMARK  232  A    between atoms: _590  and  _591
REMARK  233  A    between atoms: _596  and  _598
REMARK  234  A    between atoms: _598  and  _599
REMARK  235  A    between atoms: _601  and  _603
REMARK  236  A    between atoms: _603  and  _604
REMARK  237  A    between atoms: _603  and  _606
REMARK  238  A    between atoms: _606  and  _607
REMARK  239  A    between atoms: _607  and  _608
REMARK  240  A    between atoms: _610  and  _612
REMARK  241  A    between atoms: _612  and  _613
REMARK  242  A    between atoms: _612  and  _615
REMARK  243  A    between atoms: _615  and  _616
REMARK  244  A    between atoms: _619  and  _621
REMARK  245  A    between atoms: _621  and  _622
REMARK  246  A    between atoms: _621  and  _624
REMARK  247  A    between atoms: _624  and  _625
REMARK  248  A    between atoms: _635  and  _637
REMARK  249  A    between atoms: _637  and  _638
REMARK  250  A    between atoms: _637  and  _640
REMARK  251  A    between atoms: _640  and  _641
REMARK  252  A    between atoms: _643  and  _645
REMARK  253  A    between atoms: _645  and  _646
REMARK  254  A    between atoms: _645  and  _648
REMARK  255  A    between atoms: _648  and  _649
REMARK  256  A    between atoms: _654  and  _656
REMARK  257  A    between atoms: _656  and  _657
REMARK  258  A    between atoms: _656  and  _659
REMARK  259  A    between atoms: _659  and  _660
REMARK  260  A    between atoms: _666  and  _668
REMARK  261  A    between atoms: _668  and  _669
REMARK  262  A    between atoms: _668  and  _671
REMARK  263  A    between atoms: _671  and  _672
REMARK  264  A    between atoms: _672  and  _673
REMARK  265  A    between atoms: _676  and  _678
REMARK  266  A    between atoms: _678  and  _679
REMARK  267  A    between atoms: _678  and  _681
REMARK  268  A    between atoms: _681  and  _682
REMARK  269  A    between atoms: _692  and  _694
REMARK  270  A    between atoms: _694  and  _695
REMARK  271  A    between atoms: _694  and  _697
REMARK  272  A    between atoms: _697  and  _698
REMARK  273  A    between atoms: _701  and  _703
REMARK  274  A    between atoms: _703  and  _704
REMARK  275  A    between atoms: _703  and  _706
REMARK  276  A    between atoms: _706  and  _707
REMARK  277  A    between atoms: _709  and  _711
REMARK  278  A    between atoms: _711  and  _712
REMARK  279  A    between atoms: _711  and  _714
REMARK  280  A    between atoms: _714  and  _715
REMARK  281  A    between atoms: _717  and  _719
REMARK  282  A    between atoms: _719  and  _720
REMARK  283  A    between atoms: _719  and  _722
REMARK  284  A    between atoms: _722  and  _723
REMARK                            x       y       z     vdW  Elec       q    Type
REMARK                         _______ _______ _______ _____ _____    ______ ____
ROOT
ATOM      1  O   HOH     1      -7.455   1.492  53.296  0.00  0.00    +0.000 OA
ENDROOT
TORSDOF 0
REMARK  Name = ../refined-set-2016/4qlk/4qlk_pocket.pdb
REMARK  284 active torsions:
REMARK  status: ('A' for Active; 'I' for Inactive)
REMARK    1  A    between atoms: _1  and  _3
REMARK    2  A    between atoms: _3  and  _4
REMARK    3  A    between atoms: _3  and  _6
REMARK    4  A    between atoms: _9  and  _11
REMARK    5  A    between atoms: _11  and  _12
REMARK    6  A    between atoms: _11  and  _14
REMARK    7  A    between atoms: _14  and  _15
REMARK    8  A    between atoms: _18  and  _20
REMARK    9  A    between atoms: _20  and  _21
REMARK   10  A    between atoms: _20  and  _23
REMARK   11  A    between atoms: _23  and  _24
REMARK   12  A    between atoms: _26  and  _28
REMARK   13  A    between atoms: _28  and  _29
REMARK   14  A    between atoms: _28  and  _31
REMARK   15  A    between atoms: _31  and  _32
REMARK   16  A    between atoms: _32  and  _33
REMARK   17  A    between atoms: _38  and  _40
REMARK   18  A    between atoms: _40  and  _41
REMARK   19  A    between atoms: _40  and  _43
REMARK   20  A    between atoms: _43  and  _44
REMARK   21  A    between atoms: _44  and  _45
REMARK   22  A    between atoms: _45  and  _46
REMARK   23  A    between atoms: _55  and  _57
REMARK   24  A    between atoms: _57  and  _58
REMARK   25  A    between atoms: _57  and  _60
REMARK   26  A    between atoms: _60  and  _61
REMARK   27  A    between atoms: _66  and  _68
REMARK   28  A    between atoms: _68  and  _69
REMARK   29  A    between atoms: _68  and  _71
REMARK   30  A    between atoms: _71  and  _72
REMARK   31  A    between atoms: _77  and  _78
REMARK   32  A    between atoms: _80  and  _82
REMARK   33  A    between atoms: _82  and  _83
REMARK   34  A    between atoms: _82  and  _85
REMARK   35  A    between atoms: _85  and  _86
REMARK   36  A    between atoms: _91  and  _93
REMARK   37  A    between atoms: _93  and  _94
REMARK   38  A    between atoms: _93  and  _96
REMARK   39  A    between atoms: _96  and  _97
REMARK   40  A    between atoms: _97  and  _98
REMARK   41  A    between atoms: _103  and  _105
REMARK   42  A    between atoms: _105  and  _106
REMARK   43  A    between atoms: _105  and  _108
REMARK   44  A    between atoms: _108  and  _109
REMARK   45  A    between atoms: _109  and  _110
REMARK   46  A    between atoms: _110  and  _111
REMARK   47  A    between atoms: _120  and  _122
REMARK   48  A    between atoms: _122  and  _123
REMARK   49  A    between atoms: _122  and  _125
REMARK   50  A    between atoms: _125  and  _126
REMARK   51  A    between atoms: _129  and  _131
REMARK   52  A    between atoms: _131  and  _132
REMARK   53  A    between atoms: _131  and  _134
REMARK   54  A    between atoms: _134  and  _135
REMARK   55  A    between atoms: _138  and  _140
REMARK   56  A    between atoms: _140  and  _141
REMARK   57  A    between atoms: _140  and  _143
REMARK   58  A    between atoms: _143  and  _144
REMARK   59  A    between atoms: _147  and  _149
REMARK   60  A    between atoms: _149  and  _150
REMARK   61  A    between atoms: _149  and  _152
REMARK   62  A    between atoms: _152  and  _153
REMARK   63  A    between atoms: _156  and  _158
REMARK   64  A    between atoms: _158  and  _159
REMARK   65  A    between atoms: _158  and  _161
REMARK   66  A    between atoms: _161  and  _162
REMARK   67  A    between atoms: _162  and  _163
REMARK   68  A    between atoms: _168  and  _170
REMARK   69  A    between atoms: _170  and  _171
REMARK   70  A    between atoms: _170  and  _173
REMARK   71  A    between atoms: _173  and  _174
REMARK   72  A    between atoms: _177  and  _179
REMARK   73  A    between atoms: _179  and  _180
REMARK   74  A    between atoms: _179  and  _182
REMARK   75  A    between atoms: _182  and  _183
REMARK   76  A    between atoms: _188  and  _190
REMARK   77  A    between atoms: _190  and  _191
REMARK   78  A    between atoms: _190  and  _193
REMARK   79  A    between atoms: _196  and  _198
REMARK   80  A    between atoms: _198  and  _199
REMARK   81  A    between atoms: _198  and  _201
REMARK   82  A    between atoms: _201  and  _202
REMARK   83  A    between atoms: _205  and  _207
REMARK   84  A    between atoms: _207  and  _208
REMARK   85  A    between atoms: _207  and  _210
REMARK   86  A    between atoms: _210  and  _211
REMARK   87  A    between atoms: _214  and  _216
REMARK   88  A    between atoms: _216  and  _217
REMARK   89  A    between atoms: _216  and  _219
REMARK   90  A    between atoms: _219  and  _220
REMARK   91  A    between atoms: _226  and  _228
REMARK   92  A    between atoms: _228  and  _229
REMARK   93  A    between atoms: _228  and  _231
REMARK   94  A    between atoms: _231  and  _232
REMARK   95  A    between atoms: _237  and  _239
REMARK   96  A    between atoms: _239  and  _240
REMARK   97  A    between atoms: _239  and  _242
REMARK   98  A    between atoms: _242  and  _243
REMARK   99  A    between atoms: _253  and  _255
REMARK  100  A    between atoms: _255  and  _256
REMARK  101  A    between atoms: _255  and  _258
REMARK  102  A    between atoms: _258  and  _259
REMARK  103  A    between atoms: _264  and  _265
REMARK  104  A    between atoms: _267  and  _269
REMARK  105  A    between atoms: _269  and  _270
REMARK  106  A    between atoms: _273  and  _275
REMARK  107  A    between atoms: _275  and  _276
REMARK  108  A    between atoms: _275  and  _278
REMARK  109  A    between atoms: _278  and  _279
REMARK  110  A    between atoms: _285  and  _287
REMARK  111  A    between atoms: _287  and  _288
REMARK  112  A    between atoms: _287  and  _290
REMARK  113  A    between atoms: _290  and  _291
REMARK  114  A    between atoms: _296  and  _298
REMARK  115  A    between atoms: _298  and  _299
REMARK  116  A    between atoms: _298  and  _301
REMARK  117  A    between atoms: _301  and  _302
REMARK  118  A    between atoms: _307  and  _309
REMARK  119  A    between atoms: _309  and  _310
REMARK  120  A    between atoms: _309  and  _312
REMARK  121  A    between atoms: _312  and  _313
REMARK  122  A    between atoms: _313  and  _314
REMARK  123  A    between atoms: _319  and  _321
REMARK  124  A    between atoms: _321  and  _322
REMARK  125  A    between atoms: _321  and  _324
REMARK  126  A    between atoms: _324  and  _325
REMARK  127  A    between atoms: _330  and  _331
REMARK  128  A    between atoms: _333  and  _335
REMARK  129  A    between atoms: _335  and  _336
REMARK  130  A    between atoms: _335  and  _338
REMARK  131  A    between atoms: _338  and  _339
REMARK  132  A    between atoms: _342  and  _344
REMARK  133  A    between atoms: _344  and  _345
REMARK  134  A    between atoms: _348  and  _350
REMARK  135  A    between atoms: _350  and  _351
REMARK  136  A    between atoms: _350  and  _353
REMARK  137  A    between atoms: _353  and  _354
REMARK  138  A    between atoms: _356  and  _358
REMARK  139  A    between atoms: _358  and  _359
REMARK  140  A    between atoms: _358  and  _361
REMARK  141  A    between atoms: _361  and  _362
REMARK  142  A    between atoms: _367  and  _368
REMARK  143  A    between atoms: _370  and  _372
REMARK  144  A    between atoms: _372  and  _373
REMARK  145  A    between atoms: _372  and  _375
REMARK  146  A    between atoms: _375  and  _376
REMARK  147  A    between atoms: _376  and  _377
REMARK  148  A    between atoms: _379  and  _381
REMARK  149  A    between atoms: _381  and  _382
REMARK  150  A    between atoms: _381  and  _384
REMARK  151  A    between atoms: _384  and  _385
REMARK  152  A    between atoms: _385  and  _386
REMARK  153  A    between atoms: _386  and  _387
REMARK  154  A    between atoms: _387  and  _388
REMARK  155  A    between atoms: _392  and  _394
REMARK  156  A    between atoms: _394  and  _395
REMARK  157  A    between atoms: _394  and  _397
REMARK  158  A    between atoms: _397  and  _398
REMARK  159  A    between atoms: _400  and  _402
REMARK  160  A    between atoms: _402  and  _403
REMARK  161  A    between atoms: _402  and  _405
REMARK  162  A    between atoms: _405  and  _406
REMARK  163  A    between atoms: _411  and  _412
REMARK  164  A    between atoms: _414  and  _416
REMARK  165  A    between atoms: _416  and  _417
REMARK  166  A    between atoms: _416  and  _419
REMARK  167  A    between atoms: _419  and  _420
REMARK  168  A    between atoms: _422  and  _424
REMARK  169  A    between atoms: _424  and  _425
REMARK  170  A    between atoms: _428  and  _430
REMARK  171  A    between atoms: _430  and  _431
REMARK  172  A    between atoms: _430  and  _433
REMARK  173  A    between atoms: _433  and  _434
REMARK  174  A    between atoms: _437  and  _439
REMARK  175  A    between atoms: _439  and  _440
REMARK  176  A    between atoms: _439  and  _442
REMARK  177  A    between atoms: _442  and  _443
REMARK  178  A    between atoms: _453  and  _455
REMARK  179  A    between atoms: _455  and  _456
REMARK  180  A    between atoms: _455  and  _458
REMARK  181  A    between atoms: _458  and  _459
REMARK  182  A    between atoms: _459  and  _460
REMARK  183  A    between atoms: _465  and  _467
REMARK  184  A    between atoms: _467  and  _468
REMARK  185  A    between atoms: _467  and  _470
REMARK  186  A    between atoms: _473  and  _475
REMARK  187  A    between atoms: _475  and  _476
REMARK  188  A    between atoms: _475  and  _478
REMARK  189  A    between atoms: _478  and  _479
REMARK  190  A    between atoms: _482  and  _484
REMARK  191  A    between atoms: _484  and  _485
REMARK  192  A    between atoms: _488  and  _490
REMARK  193  A    between atoms: _490  and  _491
REMARK  194  A    between atoms: _490  and  _493
REMARK  195  A    between atoms: _496  and  _498
REMARK  196  A    between atoms: _498  and  _499
REMARK  197  A    between atoms: _498  and  _501
REMARK  198  A    between atoms: _501  and  _502
REMARK  199  A    between atoms: _508  and  _510
REMARK  200  A    between atoms: _510  and  _511
REMARK  201  A    between atoms: _510  and  _513
REMARK  202  A    between atoms: _513  and  _514
REMARK  203  A    between atoms: _516  and  _518
REMARK  204  A    between atoms: _518  and  _519
REMARK  205  A    between atoms: _518  and  _521
REMARK  206  A    between atoms: _521  and  _522
REMARK  207  A    between atoms: _527  and  _529
REMARK  208  A    between atoms: _529  and  _530
REMARK  209  A    between atoms: _529  and  _532
REMARK  210  A    between atoms: _532  and  _533
REMARK  211  A    between atoms: _543  and  _545
REMARK  212  A    between atoms: _545  and  _546
REMARK  213  A    between atoms: _545  and  _548
REMARK  214  A    between atoms: _548  and  _549
REMARK  215  A    between atoms: _552  and  _554
REMARK  216  A    between atoms: _554  and  _555
REMARK  217  A    between atoms: _554  and  _557
REMARK  218  A    between atoms: _557  and  _558
REMARK  219  A    between atoms: _563  and  _564
REMARK  220  A    between atoms: _566  and  _568
REMARK  221  A    between atoms: _568  and  _569
REMARK  222  A    between atoms: _568  and  _571
REMARK  223  A    between atoms: _571  and  _572
REMARK  224  A    between atoms: _575  and  _577
REMARK  225  A    between atoms: _577  and  _578
REMARK  226  A    between atoms: _577  and  _580
REMARK  227  A    between atoms: _580  and  _581
REMARK  228  A    between atoms: _581  and  _582
REMARK  229  A    between atoms: _585  and  _587
REMARK  230  A    between atoms: _587  and  _588
REMARK  231  A    between atoms: _587  and  _590
REMARK  232  A    between atoms: _590  and  _591
REMARK  233  A    between atoms: _596  and  _598
REMARK  234  A    between atoms: _598  and  _599
REMARK  235  A    between atoms: _601  and  _603
REMARK  236  A    between atoms: _603  and  _604
REMARK  237  A    between atoms: _603  and  _606
REMARK  238  A    between atoms: _606  and  _607
REMARK  239  A    between atoms: _607  and  _608
REMARK  240  A    between atoms: _610  and  _612
REMARK  241  A    between atoms: _612  and  _613
REMARK  242  A    between atoms: _612  and  _615
REMARK  243  A    between atoms: _615  and  _616
REMARK  244  A    between atoms: _619  and  _621
REMARK  245  A    between atoms: _621  and  _622
REMARK  246  A    between atoms: _621  and  _624
REMARK  247  A    between atoms: _624  and  _625
REMARK  248  A    between atoms: _635  and  _637
REMARK  249  A    between atoms: _637  and  _638
REMARK  250  A    between atoms: _637  and  _640
REMARK  251  A    between atoms: _640  and  _641
REMARK  252  A    between atoms: _643  and  _645
REMARK  253  A    between atoms: _645  and  _646
REMARK  254  A    between atoms: _645  and  _648
REMARK  255  A    between atoms: _648  and  _649
REMARK  256  A    between atoms: _654  and  _656
REMARK  257  A    between atoms: _656  and  _657
REMARK  258  A    between atoms: _656  and  _659
REMARK  259  A    between atoms: _659  and  _660
REMARK  260  A    between atoms: _666  and  _668
REMARK  261  A    between atoms: _668  and  _669
REMARK  262  A    between atoms: _668  and  _671
REMARK  263  A    between atoms: _671  and  _672
REMARK  264  A    between atoms: _672  and  _673
REMARK  265  A    between atoms: _676  and  _678
REMARK  266  A    between atoms: _678  and  _679
REMARK  267  A    between atoms: _678  and  _681
REMARK  268  A    between atoms: _681  and  _682
REMARK  269  A    between atoms: _692  and  _694
REMARK  270  A    between atoms: _694  and  _695
REMARK  271  A    between atoms: _694  and  _697
REMARK  272  A    between atoms: _697  and  _698
REMARK  273  A    between atoms: _701  and  _703
REMARK  274  A    between atoms: _703  and  _704
REMARK  275  A    between atoms: _703  and  _706
REMARK  276  A    between atoms: _706  and  _707
REMARK  277  A    between atoms: _709  and  _711
REMARK  278  A    between atoms: _711  and  _712
REMARK  279  A    between atoms: _711  and  _714
REMARK  280  A    between atoms: _714  and  _715
REMARK  281  A    between atoms: _717  and  _719
REMARK  282  A    between atoms: _719  and  _720
REMARK  283  A    between atoms: _719  and  _722
REMARK  284  A    between atoms: _722  and  _723
REMARK                            x       y       z     vdW  Elec       q    Type
REMARK                         _______ _______ _______ _____ _____    ______ ____
ROOT
ATOM      1  O   HOH     1      -6.542   2.177  50.271  0.00  0.00    +0.000 OA
ENDROOT
TORSDOF 0
REMARK  Name = ../refined-set-2016/4qlk/4qlk_pocket.pdb
REMARK  284 active torsions:
REMARK  status: ('A' for Active; 'I' for Inactive)
REMARK    1  A    between atoms: _1  and  _3
REMARK    2  A    between atoms: _3  and  _4
REMARK    3  A    between atoms: _3  and  _6
REMARK    4  A    between atoms: _9  and  _11
REMARK    5  A    between atoms: _11  and  _12
REMARK    6  A    between atoms: _11  and  _14
REMARK    7  A    between atoms: _14  and  _15
REMARK    8  A    between atoms: _18  and  _20
REMARK    9  A    between atoms: _20  and  _21
REMARK   10  A    between atoms: _20  and  _23
REMARK   11  A    between atoms: _23  and  _24
REMARK   12  A    between atoms: _26  and  _28
REMARK   13  A    between atoms: _28  and  _29
REMARK   14  A    between atoms: _28  and  _31
REMARK   15  A    between atoms: _31  and  _32
REMARK   16  A    between atoms: _32  and  _33
REMARK   17  A    between atoms: _38  and  _40
REMARK   18  A    between atoms: _40  and  _41
REMARK   19  A    between atoms: _40  and  _43
REMARK   20  A    between atoms: _43  and  _44
REMARK   21  A    between atoms: _44  and  _45
REMARK   22  A    between atoms: _45  and  _46
REMARK   23  A    between atoms: _55  and  _57
REMARK   24  A    between atoms: _57  and  _58
REMARK   25  A    between atoms: _57  and  _60
REMARK   26  A    between atoms: _60  and  _61
REMARK   27  A    between atoms: _66  and  _68
REMARK   28  A    between atoms: _68  and  _69
REMARK   29  A    between atoms: _68  and  _71
REMARK   30  A    between atoms: _71  and  _72
REMARK   31  A    between atoms: _77  and  _78
REMARK   32  A    between atoms: _80  and  _82
REMARK   33  A    between atoms: _82  and  _83
REMARK   34  A    between atoms: _82  and  _85
REMARK   35  A    between atoms: _85  and  _86
REMARK   36  A    between atoms: _91  and  _93
REMARK   37  A    between atoms: _93  and  _94
REMARK   38  A    between atoms: _93  and  _96
REMARK   39  A    between atoms: _96  and  _97
REMARK   40  A    between atoms: _97  and  _98
REMARK   41  A    between atoms: _103  and  _105
REMARK   42  A    between atoms: _105  and  _106
REMARK   43  A    between atoms: _105  and  _108
REMARK   44  A    between atoms: _108  and  _109
REMARK   45  A    between atoms: _109  and  _110
REMARK   46  A    between atoms: _110  and  _111
REMARK   47  A    between atoms: _120  and  _122
REMARK   48  A    between atoms: _122  and  _123
REMARK   49  A    between atoms: _122  and  _125
REMARK   50  A    between atoms: _125  and  _126
REMARK   51  A    between atoms: _129  and  _131
REMARK   52  A    between atoms: _131  and  _132
REMARK   53  A    between atoms: _131  and  _134
REMARK   54  A    between atoms: _134  and  _135
REMARK   55  A    between atoms: _138  and  _140
REMARK   56  A    between atoms: _140  and  _141
REMARK   57  A    between atoms: _140  and  _143
REMARK   58  A    between atoms: _143  and  _144
REMARK   59  A    between atoms: _147  and  _149
REMARK   60  A    between atoms: _149  and  _150
REMARK   61  A    between atoms: _149  and  _152
REMARK   62  A    between atoms: _152  and  _153
REMARK   63  A    between atoms: _156  and  _158
REMARK   64  A    between atoms: _158  and  _159
REMARK   65  A    between atoms: _158  and  _161
REMARK   66  A    between atoms: _161  and  _162
REMARK   67  A    between atoms: _162  and  _163
REMARK   68  A    between atoms: _168  and  _170
REMARK   69  A    between atoms: _170  and  _171
REMARK   70  A    between atoms: _170  and  _173
REMARK   71  A    between atoms: _173  and  _174
REMARK   72  A    between atoms: _177  and  _179
REMARK   73  A    between atoms: _179  and  _180
REMARK   74  A    between atoms: _179  and  _182
REMARK   75  A    between atoms: _182  and  _183
REMARK   76  A    between atoms: _188  and  _190
REMARK   77  A    between atoms: _190  and  _191
REMARK   78  A    between atoms: _190  and  _193
REMARK   79  A    between atoms: _196  and  _198
REMARK   80  A    between atoms: _198  and  _199
REMARK   81  A    between atoms: _198  and  _201
REMARK   82  A    between atoms: _201  and  _202
REMARK   83  A    between atoms: _205  and  _207
REMARK   84  A    between atoms: _207  and  _208
REMARK   85  A    between atoms: _207  and  _210
REMARK   86  A    between atoms: _210  and  _211
REMARK   87  A    between atoms: _214  and  _216
REMARK   88  A    between atoms: _216  and  _217
REMARK   89  A    between atoms: _216  and  _219
REMARK   90  A    between atoms: _219  and  _220
REMARK   91  A    between atoms: _226  and  _228
REMARK   92  A    between atoms: _228  and  _229
REMARK   93  A    between atoms: _228  and  _231
REMARK   94  A    between atoms: _231  and  _232
REMARK   95  A    between atoms: _237  and  _239
REMARK   96  A    between atoms: _239  and  _240
REMARK   97  A    between atoms: _239  and  _242
REMARK   98  A    between atoms: _242  and  _243
REMARK   99  A    between atoms: _253  and  _255
REMARK  100  A    between atoms: _255  and  _256
REMARK  101  A    between atoms: _255  and  _258
REMARK  102  A    between atoms: _258  and  _259
REMARK  103  A    between atoms: _264  and  _265
REMARK  104  A    between atoms: _267  and  _269
REMARK  105  A    between atoms: _269  and  _270
REMARK  106  A    between atoms: _273  and  _275
REMARK  107  A    between atoms: _275  and  _276
REMARK  108  A    between atoms: _275  and  _278
REMARK  109  A    between atoms: _278  and  _279
REMARK  110  A    between atoms: _285  and  _287
REMARK  111  A    between atoms: _287  and  _288
REMARK  112  A    between atoms: _287  and  _290
REMARK  113  A    between atoms: _290  and  _291
REMARK  114  A    between atoms: _296  and  _298
REMARK  115  A    between atoms: _298  and  _299
REMARK  116  A    between atoms: _298  and  _301
REMARK  117  A    between atoms: _301  and  _302
REMARK  118  A    between atoms: _307  and  _309
REMARK  119  A    between atoms: _309  and  _310
REMARK  120  A    between atoms: _309  and  _312
REMARK  121  A    between atoms: _312  and  _313
REMARK  122  A    between atoms: _313  and  _314
REMARK  123  A    between atoms: _319  and  _321
REMARK  124  A    between atoms: _321  and  _322
REMARK  125  A    between atoms: _321  and  _324
REMARK  126  A    between atoms: _324  and  _325
REMARK  127  A    between atoms: _330  and  _331
REMARK  128  A    between atoms: _333  and  _335
REMARK  129  A    between atoms: _335  and  _336
REMARK  130  A    between atoms: _335  and  _338
REMARK  131  A    between atoms: _338  and  _339
REMARK  132  A    between atoms: _342  and  _344
REMARK  133  A    between atoms: _344  and  _345
REMARK  134  A    between atoms: _348  and  _350
REMARK  135  A    between atoms: _350  and  _351
REMARK  136  A    between atoms: _350  and  _353
REMARK  137  A    between atoms: _353  and  _354
REMARK  138  A    between atoms: _356  and  _358
REMARK  139  A    between atoms: _358  and  _359
REMARK  140  A    between atoms: _358  and  _361
REMARK  141  A    between atoms: _361  and  _362
REMARK  142  A    between atoms: _367  and  _368
REMARK  143  A    between atoms: _370  and  _372
REMARK  144  A    between atoms: _372  and  _373
REMARK  145  A    between atoms: _372  and  _375
REMARK  146  A    between atoms: _375  and  _376
REMARK  147  A    between atoms: _376  and  _377
REMARK  148  A    between atoms: _379  and  _381
REMARK  149  A    between atoms: _381  and  _382
REMARK  150  A    between atoms: _381  and  _384
REMARK  151  A    between atoms: _384  and  _385
REMARK  152  A    between atoms: _385  and  _386
REMARK  153  A    between atoms: _386  and  _387
REMARK  154  A    between atoms: _387  and  _388
REMARK  155  A    between atoms: _392  and  _394
REMARK  156  A    between atoms: _394  and  _395
REMARK  157  A    between atoms: _394  and  _397
REMARK  158  A    between atoms: _397  and  _398
REMARK  159  A    between atoms: _400  and  _402
REMARK  160  A    between atoms: _402  and  _403
REMARK  161  A    between atoms: _402  and  _405
REMARK  162  A    between atoms: _405  and  _406
REMARK  163  A    between atoms: _411  and  _412
REMARK  164  A    between atoms: _414  and  _416
REMARK  165  A    between atoms: _416  and  _417
REMARK  166  A    between atoms: _416  and  _419
REMARK  167  A    between atoms: _419  and  _420
REMARK  168  A    between atoms: _422  and  _424
REMARK  169  A    between atoms: _424  and  _425
REMARK  170  A    between atoms: _428  and  _430
REMARK  171  A    between atoms: _430  and  _431
REMARK  172  A    between atoms: _430  and  _433
REMARK  173  A    between atoms: _433  and  _434
REMARK  174  A    between atoms: _437  and  _439
REMARK  175  A    between atoms: _439  and  _440
REMARK  176  A    between atoms: _439  and  _442
REMARK  177  A    between atoms: _442  and  _443
REMARK  178  A    between atoms: _453  and  _455
REMARK  179  A    between atoms: _455  and  _456
REMARK  180  A    between atoms: _455  and  _458
REMARK  181  A    between atoms: _458  and  _459
REMARK  182  A    between atoms: _459  and  _460
REMARK  183  A    between atoms: _465  and  _467
REMARK  184  A    between atoms: _467  and  _468
REMARK  185  A    between atoms: _467  and  _470
REMARK  186  A    between atoms: _473  and  _475
REMARK  187  A    between atoms: _475  and  _476
REMARK  188  A    between atoms: _475  and  _478
REMARK  189  A    between atoms: _478  and  _479
REMARK  190  A    between atoms: _482  and  _484
REMARK  191  A    between atoms: _484  and  _485
REMARK  192  A    between atoms: _488  and  _490
REMARK  193  A    between atoms: _490  and  _491
REMARK  194  A    between atoms: _490  and  _493
REMARK  195  A    between atoms: _496  and  _498
REMARK  196  A    between atoms: _498  and  _499
REMARK  197  A    between atoms: _498  and  _501
REMARK  198  A    between atoms: _501  and  _502
REMARK  199  A    between atoms: _508  and  _510
REMARK  200  A    between atoms: _510  and  _511
REMARK  201  A    between atoms: _510  and  _513
REMARK  202  A    between atoms: _513  and  _514
REMARK  203  A    between atoms: _516  and  _518
REMARK  204  A    between atoms: _518  and  _519
REMARK  205  A    between atoms: _518  and  _521
REMARK  206  A    between atoms: _521  and  _522
REMARK  207  A    between atoms: _527  and  _529
REMARK  208  A    between atoms: _529  and  _530
REMARK  209  A    between atoms: _529  and  _532
REMARK  210  A    between atoms: _532  and  _533
REMARK  211  A    between atoms: _543  and  _545
REMARK  212  A    between atoms: _545  and  _546
REMARK  213  A    between atoms: _545  and  _548
REMARK  214  A    between atoms: _548  and  _549
REMARK  215  A    between atoms: _552  and  _554
REMARK  216  A    between atoms: _554  and  _555
REMARK  217  A    between atoms: _554  and  _557
REMARK  218  A    between atoms: _557  and  _558
REMARK  219  A    between atoms: _563  and  _564
REMARK  220  A    between atoms: _566  and  _568
REMARK  221  A    between atoms: _568  and  _569
REMARK  222  A    between atoms: _568  and  _571
REMARK  223  A    between atoms: _571  and  _572
REMARK  224  A    between atoms: _575  and  _577
REMARK  225  A    between atoms: _577  and  _578
REMARK  226  A    between atoms: _577  and  _580
REMARK  227  A    between atoms: _580  and  _581
REMARK  228  A    between atoms: _581  and  _582
REMARK  229  A    between atoms: _585  and  _587
REMARK  230  A    between atoms: _587  and  _588
REMARK  231  A    between atoms: _587  and  _590
REMARK  232  A    between atoms: _590  and  _591
REMARK  233  A    between atoms: _596  and  _598
REMARK  234  A    between atoms: _598  and  _599
REMARK  235  A    between atoms: _601  and  _603
REMARK  236  A    between atoms: _603  and  _604
REMARK  237  A    between atoms: _603  and  _606
REMARK  238  A    between atoms: _606  and  _607
REMARK  239  A    between atoms: _607  and  _608
REMARK  240  A    between atoms: _610  and  _612
REMARK  241  A    between atoms: _612  and  _613
REMARK  242  A    between atoms: _612  and  _615
REMARK  243  A    between atoms: _615  and  _616
REMARK  244  A    between atoms: _619  and  _621
REMARK  245  A    between atoms: _621  and  _622
REMARK  246  A    between atoms: _621  and  _624
REMARK  247  A    between atoms: _624  and  _625
REMARK  248  A    between atoms: _635  and  _637
REMARK  249  A    between atoms: _637  and  _638
REMARK  250  A    between atoms: _637  and  _640
REMARK  251  A    between atoms: _640  and  _641
REMARK  252  A    between atoms: _643  and  _645
REMARK  253  A    between atoms: _645  and  _646
REMARK  254  A    between atoms: _645  and  _648
REMARK  255  A    between atoms: _648  and  _649
REMARK  256  A    between atoms: _654  and  _656
REMARK  257  A    between atoms: _656  and  _657
REMARK  258  A    between atoms: _656  and  _659
REMARK  259  A    between atoms: _659  and  _660
REMARK  260  A    between atoms: _666  and  _668
REMARK  261  A    between atoms: _668  and  _669
REMARK  262  A    between atoms: _668  and  _671
REMARK  263  A    between atoms: _671  and  _672
REMARK  264  A    between atoms: _672  and  _673
REMARK  265  A    between atoms: _676  and  _678
REMARK  266  A    between atoms: _678  and  _679
REMARK  267  A    between atoms: _678  and  _681
REMARK  268  A    between atoms: _681  and  _682
REMARK  269  A    between atoms: _692  and  _694
REMARK  270  A    between atoms: _694  and  _695
REMARK  271  A    between atoms: _694  and  _697
REMARK  272  A    between atoms: _697  and  _698
REMARK  273  A    between atoms: _701  and  _703
REMARK  274  A    between atoms: _703  and  _704
REMARK  275  A    between atoms: _703  and  _706
REMARK  276  A    between atoms: _706  and  _707
REMARK  277  A    between atoms: _709  and  _711
REMARK  278  A    between atoms: _711  and  _712
REMARK  279  A    between atoms: _711  and  _714
REMARK  280  A    between atoms: _714  and  _715
REMARK  281  A    between atoms: _717  and  _719
REMARK  282  A    between atoms: _719  and  _720
REMARK  283  A    between atoms: _719  and  _722
REMARK  284  A    between atoms: _722  and  _723
REMARK                            x       y       z     vdW  Elec       q    Type
REMARK                         _______ _______ _______ _____ _____    ______ ____
ROOT
ATOM      1  O   HOH     1     -10.719   1.385  56.543  0.00  0.00    +0.000 OA
ENDROOT
TORSDOF 0
REMARK  Name = ../refined-set-2016/4qlk/4qlk_pocket.pdb
REMARK  284 active torsions:
REMARK  status: ('A' for Active; 'I' for Inactive)
REMARK    1  A    between atoms: _1  and  _3
REMARK    2  A    between atoms: _3  and  _4
REMARK    3  A    between atoms: _3  and  _6
REMARK    4  A    between atoms: _9  and  _11
REMARK    5  A    between atoms: _11  and  _12
REMARK    6  A    between atoms: _11  and  _14
REMARK    7  A    between atoms: _14  and  _15
REMARK    8  A    between atoms: _18  and  _20
REMARK    9  A    between atoms: _20  and  _21
REMARK   10  A    between atoms: _20  and  _23
REMARK   11  A    between atoms: _23  and  _24
REMARK   12  A    between atoms: _26  and  _28
REMARK   13  A    between atoms: _28  and  _29
REMARK   14  A    between atoms: _28  and  _31
REMARK   15  A    between atoms: _31  and  _32
REMARK   16  A    between atoms: _32  and  _33
REMARK   17  A    between atoms: _38  and  _40
REMARK   18  A    between atoms: _40  and  _41
REMARK   19  A    between atoms: _40  and  _43
REMARK   20  A    between atoms: _43  and  _44
REMARK   21  A    between atoms: _44  and  _45
REMARK   22  A    between atoms: _45  and  _46
REMARK   23  A    between atoms: _55  and  _57
REMARK   24  A    between atoms: _57  and  _58
REMARK   25  A    between atoms: _57  and  _60
REMARK   26  A    between atoms: _60  and  _61
REMARK   27  A    between atoms: _66  and  _68
REMARK   28  A    between atoms: _68  and  _69
REMARK   29  A    between atoms: _68  and  _71
REMARK   30  A    between atoms: _71  and  _72
REMARK   31  A    between atoms: _77  and  _78
REMARK   32  A    between atoms: _80  and  _82
REMARK   33  A    between atoms: _82  and  _83
REMARK   34  A    between atoms: _82  and  _85
REMARK   35  A    between atoms: _85  and  _86
REMARK   36  A    between atoms: _91  and  _93
REMARK   37  A    between atoms: _93  and  _94
REMARK   38  A    between atoms: _93  and  _96
REMARK   39  A    between atoms: _96  and  _97
REMARK   40  A    between atoms: _97  and  _98
REMARK   41  A    between atoms: _103  and  _105
REMARK   42  A    between atoms: _105  and  _106
REMARK   43  A    between atoms: _105  and  _108
REMARK   44  A    between atoms: _108  and  _109
REMARK   45  A    between atoms: _109  and  _110
REMARK   46  A    between atoms: _110  and  _111
REMARK   47  A    between atoms: _120  and  _122
REMARK   48  A    between atoms: _122  and  _123
REMARK   49  A    between atoms: _122  and  _125
REMARK   50  A    between atoms: _125  and  _126
REMARK   51  A    between atoms: _129  and  _131
REMARK   52  A    between atoms: _131  and  _132
REMARK   53  A    between atoms: _131  and  _134
REMARK   54  A    between atoms: _134  and  _135
REMARK   55  A    between atoms: _138  and  _140
REMARK   56  A    between atoms: _140  and  _141
REMARK   57  A    between atoms: _140  and  _143
REMARK   58  A    between atoms: _143  and  _144
REMARK   59  A    between atoms: _147  and  _149
REMARK   60  A    between atoms: _149  and  _150
REMARK   61  A    between atoms: _149  and  _152
REMARK   62  A    between atoms: _152  and  _153
REMARK   63  A    between atoms: _156  and  _158
REMARK   64  A    between atoms: _158  and  _159
REMARK   65  A    between atoms: _158  and  _161
REMARK   66  A    between atoms: _161  and  _162
REMARK   67  A    between atoms: _162  and  _163
REMARK   68  A    between atoms: _168  and  _170
REMARK   69  A    between atoms: _170  and  _171
REMARK   70  A    between atoms: _170  and  _173
REMARK   71  A    between atoms: _173  and  _174
REMARK   72  A    between atoms: _177  and  _179
REMARK   73  A    between atoms: _179  and  _180
REMARK   74  A    between atoms: _179  and  _182
REMARK   75  A    between atoms: _182  and  _183
REMARK   76  A    between atoms: _188  and  _190
REMARK   77  A    between atoms: _190  and  _191
REMARK   78  A    between atoms: _190  and  _193
REMARK   79  A    between atoms: _196  and  _198
REMARK   80  A    between atoms: _198  and  _199
REMARK   81  A    between atoms: _198  and  _201
REMARK   82  A    between atoms: _201  and  _202
REMARK   83  A    between atoms: _205  and  _207
REMARK   84  A    between atoms: _207  and  _208
REMARK   85  A    between atoms: _207  and  _210
REMARK   86  A    between atoms: _210  and  _211
REMARK   87  A    between atoms: _214  and  _216
REMARK   88  A    between atoms: _216  and  _217
REMARK   89  A    between atoms: _216  and  _219
REMARK   90  A    between atoms: _219  and  _220
REMARK   91  A    between atoms: _226  and  _228
REMARK   92  A    between atoms: _228  and  _229
REMARK   93  A    between atoms: _228  and  _231
REMARK   94  A    between atoms: _231  and  _232
REMARK   95  A    between atoms: _237  and  _239
REMARK   96  A    between atoms: _239  and  _240
REMARK   97  A    between atoms: _239  and  _242
REMARK   98  A    between atoms: _242  and  _243
REMARK   99  A    between atoms: _253  and  _255
REMARK  100  A    between atoms: _255  and  _256
REMARK  101  A    between atoms: _255  and  _258
REMARK  102  A    between atoms: _258  and  _259
REMARK  103  A    between atoms: _264  and  _265
REMARK  104  A    between atoms: _267  and  _269
REMARK  105  A    between atoms: _269  and  _270
REMARK  106  A    between atoms: _273  and  _275
REMARK  107  A    between atoms: _275  and  _276
REMARK  108  A    between atoms: _275  and  _278
REMARK  109  A    between atoms: _278  and  _279
REMARK  110  A    between atoms: _285  and  _287
REMARK  111  A    between atoms: _287  and  _288
REMARK  112  A    between atoms: _287  and  _290
REMARK  113  A    between atoms: _290  and  _291
REMARK  114  A    between atoms: _296  and  _298
REMARK  115  A    between atoms: _298  and  _299
REMARK  116  A    between atoms: _298  and  _301
REMARK  117  A    between atoms: _301  and  _302
REMARK  118  A    between atoms: _307  and  _309
REMARK  119  A    between atoms: _309  and  _310
REMARK  120  A    between atoms: _309  and  _312
REMARK  121  A    between atoms: _312  and  _313
REMARK  122  A    between atoms: _313  and  _314
REMARK  123  A    between atoms: _319  and  _321
REMARK  124  A    between atoms: _321  and  _322
REMARK  125  A    between atoms: _321  and  _324
REMARK  126  A    between atoms: _324  and  _325
REMARK  127  A    between atoms: _330  and  _331
REMARK  128  A    between atoms: _333  and  _335
REMARK  129  A    between atoms: _335  and  _336
REMARK  130  A    between atoms: _335  and  _338
REMARK  131  A    between atoms: _338  and  _339
REMARK  132  A    between atoms: _342  and  _344
REMARK  133  A    between atoms: _344  and  _345
REMARK  134  A    between atoms: _348  and  _350
REMARK  135  A    between atoms: _350  and  _351
REMARK  136  A    between atoms: _350  and  _353
REMARK  137  A    between atoms: _353  and  _354
REMARK  138  A    between atoms: _356  and  _358
REMARK  139  A    between atoms: _358  and  _359
REMARK  140  A    between atoms: _358  and  _361
REMARK  141  A    between atoms: _361  and  _362
REMARK  142  A    between atoms: _367  and  _368
REMARK  143  A    between atoms: _370  and  _372
REMARK  144  A    between atoms: _372  and  _373
REMARK  145  A    between atoms: _372  and  _375
REMARK  146  A    between atoms: _375  and  _376
REMARK  147  A    between atoms: _376  and  _377
REMARK  148  A    between atoms: _379  and  _381
REMARK  149  A    between atoms: _381  and  _382
REMARK  150  A    between atoms: _381  and  _384
REMARK  151  A    between atoms: _384  and  _385
REMARK  152  A    between atoms: _385  and  _386
REMARK  153  A    between atoms: _386  and  _387
REMARK  154  A    between atoms: _387  and  _388
REMARK  155  A    between atoms: _392  and  _394
REMARK  156  A    between atoms: _394  and  _395
REMARK  157  A    between atoms: _394  and  _397
REMARK  158  A    between atoms: _397  and  _398
REMARK  159  A    between atoms: _400  and  _402
REMARK  160  A    between atoms: _402  and  _403
REMARK  161  A    between atoms: _402  and  _405
REMARK  162  A    between atoms: _405  and  _406
REMARK  163  A    between atoms: _411  and  _412
REMARK  164  A    between atoms: _414  and  _416
REMARK  165  A    between atoms: _416  and  _417
REMARK  166  A    between atoms: _416  and  _419
REMARK  167  A    between atoms: _419  and  _420
REMARK  168  A    between atoms: _422  and  _424
REMARK  169  A    between atoms: _424  and  _425
REMARK  170  A    between atoms: _428  and  _430
REMARK  171  A    between atoms: _430  and  _431
REMARK  172  A    between atoms: _430  and  _433
REMARK  173  A    between atoms: _433  and  _434
REMARK  174  A    between atoms: _437  and  _439
REMARK  175  A    between atoms: _439  and  _440
REMARK  176  A    between atoms: _439  and  _442
REMARK  177  A    between atoms: _442  and  _443
REMARK  178  A    between atoms: _453  and  _455
REMARK  179  A    between atoms: _455  and  _456
REMARK  180  A    between atoms: _455  and  _458
REMARK  181  A    between atoms: _458  and  _459
REMARK  182  A    between atoms: _459  and  _460
REMARK  183  A    between atoms: _465  and  _467
REMARK  184  A    between atoms: _467  and  _468
REMARK  185  A    between atoms: _467  and  _470
REMARK  186  A    between atoms: _473  and  _475
REMARK  187  A    between atoms: _475  and  _476
REMARK  188  A    between atoms: _475  and  _478
REMARK  189  A    between atoms: _478  and  _479
REMARK  190  A    between atoms: _482  and  _484
REMARK  191  A    between atoms: _484  and  _485
REMARK  192  A    between atoms: _488  and  _490
REMARK  193  A    between atoms: _490  and  _491
REMARK  194  A    between atoms: _490  and  _493
REMARK  195  A    between atoms: _496  and  _498
REMARK  196  A    between atoms: _498  and  _499
REMARK  197  A    between atoms: _498  and  _501
REMARK  198  A    between atoms: _501  and  _502
REMARK  199  A    between atoms: _508  and  _510
REMARK  200  A    between atoms: _510  and  _511
REMARK  201  A    between atoms: _510  and  _513
REMARK  202  A    between atoms: _513  and  _514
REMARK  203  A    between atoms: _516  and  _518
REMARK  204  A    between atoms: _518  and  _519
REMARK  205  A    between atoms: _518  and  _521
REMARK  206  A    between atoms: _521  and  _522
REMARK  207  A    between atoms: _527  and  _529
REMARK  208  A    between atoms: _529  and  _530
REMARK  209  A    between atoms: _529  and  _532
REMARK  210  A    between atoms: _532  and  _533
REMARK  211  A    between atoms: _543  and  _545
REMARK  212  A    between atoms: _545  and  _546
REMARK  213  A    between atoms: _545  and  _548
REMARK  214  A    between atoms: _548  and  _549
REMARK  215  A    between atoms: _552  and  _554
REMARK  216  A    between atoms: _554  and  _555
REMARK  217  A    between atoms: _554  and  _557
REMARK  218  A    between atoms: _557  and  _558
REMARK  219  A    between atoms: _563  and  _564
REMARK  220  A    between atoms: _566  and  _568
REMARK  221  A    between atoms: _568  and  _569
REMARK  222  A    between atoms: _568  and  _571
REMARK  223  A    between atoms: _571  and  _572
REMARK  224  A    between atoms: _575  and  _577
REMARK  225  A    between atoms: _577  and  _578
REMARK  226  A    between atoms: _577  and  _580
REMARK  227  A    between atoms: _580  and  _581
REMARK  228  A    between atoms: _581  and  _582
REMARK  229  A    between atoms: _585  and  _587
REMARK  230  A    between atoms: _587  and  _588
REMARK  231  A    between atoms: _587  and  _590
REMARK  232  A    between atoms: _590  and  _591
REMARK  233  A    between atoms: _596  and  _598
REMARK  234  A    between atoms: _598  and  _599
REMARK  235  A    between atoms: _601  and  _603
REMARK  236  A    between atoms: _603  and  _604
REMARK  237  A    between atoms: _603  and  _606
REMARK  238  A    between atoms: _606  and  _607
REMARK  239  A    between atoms: _607  and  _608
REMARK  240  A    between atoms: _610  and  _612
REMARK  241  A    between atoms: _612  and  _613
REMARK  242  A    between atoms: _612  and  _615
REMARK  243  A    between atoms: _615  and  _616
REMARK  244  A    between atoms: _619  and  _621
REMARK  245  A    between atoms: _621  and  _622
REMARK  246  A    between atoms: _621  and  _624
REMARK  247  A    between atoms: _624  and  _625
REMARK  248  A    between atoms: _635  and  _637
REMARK  249  A    between atoms: _637  and  _638
REMARK  250  A    between atoms: _637  and  _640
REMARK  251  A    between atoms: _640  and  _641
REMARK  252  A    between atoms: _643  and  _645
REMARK  253  A    between atoms: _645  and  _646
REMARK  254  A    between atoms: _645  and  _648
REMARK  255  A    between atoms: _648  and  _649
REMARK  256  A    between atoms: _654  and  _656
REMARK  257  A    between atoms: _656  and  _657
REMARK  258  A    between atoms: _656  and  _659
REMARK  259  A    between atoms: _659  and  _660
REMARK  260  A    between atoms: _666  and  _668
REMARK  261  A    between atoms: _668  and  _669
REMARK  262  A    between atoms: _668  and  _671
REMARK  263  A    between atoms: _671  and  _672
REMARK  264  A    between atoms: _672  and  _673
REMARK  265  A    between atoms: _676  and  _678
REMARK  266  A    between atoms: _678  and  _679
REMARK  267  A    between atoms: _678  and  _681
REMARK  268  A    between atoms: _681  and  _682
REMARK  269  A    between atoms: _692  and  _694
REMARK  270  A    between atoms: _694  and  _695
REMARK  271  A    between atoms: _694  and  _697
REMARK  272  A    between atoms: _697  and  _698
REMARK  273  A    between atoms: _701  and  _703
REMARK  274  A    between atoms: _703  and  _704
REMARK  275  A    between atoms: _703  and  _706
REMARK  276  A    between atoms: _706  and  _707
REMARK  277  A    between atoms: _709  and  _711
REMARK  278  A    between atoms: _711  and  _712
REMARK  279  A    between atoms: _711  and  _714
REMARK  280  A    between atoms: _714  and  _715
REMARK  281  A    between atoms: _717  and  _719
REMARK  282  A    between atoms: _719  and  _720
REMARK  283  A    between atoms: _719  and  _722
REMARK  284  A    between atoms: _722  and  _723
REMARK                            x       y       z     vdW  Elec       q    Type
REMARK                         _______ _______ _______ _____ _____    ______ ____
ROOT
ATOM      1  O   HOH     1     -12.303   3.390  60.666  0.00  0.00    +0.000 OA
ENDROOT
TORSDOF 0
